4D6


 23 24  0  0  0  0  0  0  0  0999 V2000
   16.2775    5.0107   27.3587 C   0  0  0  0  0  0  0  0  0  0  0  0
   16.1931    3.7654   28.2467 C   0  0  0  0  0  0  0  0  0  0  0  0
   14.9717    2.9321   27.8563 C   0  0  0  0  0  0  0  0  0  0  0  0
   13.7779    3.6813   28.1046 O   0  0  0  0  0  0  0  0  0  0  0  0
   13.7632    4.9402   27.4319 B   0  0  0  0  0  0  0  0  0  0  0  0
   12.6483    5.3417   26.6490 O   0  0  0  0  0  0  0  0  0  0  0  0
   15.0276    5.8703   27.5894 C   0  0  0  0  0  0  0  0  0  0  0  0
   11.9315    4.6935   26.6240 H   0  0  0  0  0  0  0  0  0  0  0  0
   15.4851    7.7044   29.1274 C   0  0  0  0  0  0  0  0  0  0  0  0
   15.0594    6.4393   28.9385 N   0  0  0  0  0  0  0  0  0  0  0  0
   15.8422    8.3715   28.1794 O   0  0  0  0  0  0  0  0  0  0  0  0
   14.7739    5.9055   29.6975 H   0  0  0  0  0  0  0  0  0  0  0  0
   15.5175    8.2899   30.5156 C   0  0  0  0  0  0  0  0  0  0  0  0
   18.7246   10.6699   30.7379 C   0  0  0  0  0  0  0  0  0  0  0  0
   16.6177    9.3160   30.6022 C   0  0  0  0  0  0  0  0  0  0  0  0
   17.5970   11.3831   30.7510 C   0  0  0  0  0  0  0  0  0  0  0  0
   18.3392    8.9583   30.6261 S   0  0  0  0  0  0  0  0  0  0  0  0
   16.4340   10.6350   30.6811 C   0  0  0  0  0  0  0  0  0  0  0  0
   14.9483    1.6455   28.6838 C   0  0  0  0  0  0  0  0  0  0  0  0
   13.1566    1.2508   30.1627 O   0  0  0  0  0  0  0  0  0  0  0  0
   13.5222    1.2848   29.0108 C   0  0  0  0  0  0  0  0  0  0  0  0
   12.6587    1.0013   28.0239 O   0  0  0  0  0  0  0  0  0  0  0  0
   11.7543    0.7757   28.2830 H   0  0  0  0  0  0  0  0  0  0  0  0
 20 21  2  0  0  0
 19 21  1  0  0  0
 21 22  1  0  0  0
  3 19  1  0  0  0
  2  3  1  0  0  0
  3  4  1  0  0  0
  1  2  1  0  0  0
  4  5  1  0  0  0
  1  7  1  0  0  0
  5  6  1  0  0  0
  5  7  1  0  0  0
  7 10  1  0  0  0
  9 10  1  0  0  0
  9 11  2  0  0  0
 14 17  1  0  0  0
 15 17  1  0  0  0
  9 13  1  0  0  0
 14 16  2  0  0  0
 15 13  1  0  0  0
 15 18  2  0  0  0
 16 18  1  0  0  0
 22 23  1  0  0  0
  6  8  1  0  0  0
 10 12  1  0  0  0
M  END
> <OPENEYE_ISO_SMILES>
B1([C@H](CC[C@H](O1)CC(=O)O)NC(=O)Cc2cccs2)O

> <OPENEYE_INCHI>
InChI=1S/C12H16BNO5S/c15-11(7-9-2-1-5-20-9)14-10-4-3-8(6-12(16)17)19-13(10)18/h1-2,5,8,10,18H,3-4,6-7H2,(H,14,15)(H,16,17)/t8-,10-/m0/s1

> <OPENEYE_INCHIKEY>
IOOWNWLVCOUUEX-WPRPVWTQSA-N

> <FORMULA>
C12H16BNO5S

> <minimizedAffinity>
-6.55365

> <CNNscore>
0.6617537737

> <CNNaffinity>
5.3252229691

> <CNN_VS>
3.5239863396

> <CNNaffinity_variance>
0.3891723156

$$$$
4D6


 23 24  0  0  0  0  0  0  0  0999 V2000
   17.5939   -0.2389   27.3972 C   0  0  0  0  0  0  0  0  0  0  0  0
   16.0904   -0.1145   27.1319 C   0  0  0  0  0  0  0  0  0  0  0  0
   15.4696    0.8740   28.1198 C   0  0  0  0  0  0  0  0  0  0  0  0
   15.5995    0.3692   29.4526 O   0  0  0  0  0  0  0  0  0  0  0  0
   16.9523    0.0854   29.8088 B   0  0  0  0  0  0  0  0  0  0  0  0
   17.5117    0.5759   31.0185 O   0  0  0  0  0  0  0  0  0  0  0  0
   17.8038   -0.7929   28.8127 C   0  0  0  0  0  0  0  0  0  0  0  0
   16.8990    1.1015   31.5504 H   0  0  0  0  0  0  0  0  0  0  0  0
   18.2542   -3.1795   29.0129 C   0  0  0  0  0  0  0  0  0  0  0  0
   17.3545   -2.1856   28.8716 N   0  0  0  0  0  0  0  0  0  0  0  0
   19.4366   -2.9201   29.0909 O   0  0  0  0  0  0  0  0  0  0  0  0
   16.4082   -2.3936   28.8089 H   0  0  0  0  0  0  0  0  0  0  0  0
   17.7917   -4.6124   29.0738 C   0  0  0  0  0  0  0  0  0  0  0  0
   18.4991   -6.7523   25.7693 C   0  0  0  0  0  0  0  0  0  0  0  0
   18.0349   -5.2756   27.7427 C   0  0  0  0  0  0  0  0  0  0  0  0
   18.2678   -5.4726   25.4709 C   0  0  0  0  0  0  0  0  0  0  0  0
   18.3969   -6.9805   27.5094 S   0  0  0  0  0  0  0  0  0  0  0  0
   18.0164   -4.6567   26.5610 C   0  0  0  0  0  0  0  0  0  0  0  0
   13.9882    1.0625   27.7875 C   0  0  0  0  0  0  0  0  0  0  0  0
   12.9564    2.9516   28.7466 O   0  0  0  0  0  0  0  0  0  0  0  0
   13.3128    1.8079   28.9096 C   0  0  0  0  0  0  0  0  0  0  0  0
   13.1073    1.2024   30.0891 O   0  0  0  0  0  0  0  0  0  0  0  0
   12.6698    1.7211   30.7787 H   0  0  0  0  0  0  0  0  0  0  0  0
 20 21  2  0  0  0
 19 21  1  0  0  0
 21 22  1  0  0  0
  3 19  1  0  0  0
  2  3  1  0  0  0
  3  4  1  0  0  0
  1  2  1  0  0  0
  4  5  1  0  0  0
  1  7  1  0  0  0
  5  6  1  0  0  0
  5  7  1  0  0  0
  7 10  1  0  0  0
  9 10  1  0  0  0
  9 11  2  0  0  0
 14 17  1  0  0  0
 15 17  1  0  0  0
  9 13  1  0  0  0
 14 16  2  0  0  0
 15 13  1  0  0  0
 15 18  2  0  0  0
 16 18  1  0  0  0
 22 23  1  0  0  0
  6  8  1  0  0  0
 10 12  1  0  0  0
M  END
> <OPENEYE_ISO_SMILES>
B1([C@H](CC[C@H](O1)CC(=O)O)NC(=O)Cc2cccs2)O

> <OPENEYE_INCHI>
InChI=1S/C12H16BNO5S/c15-11(7-9-2-1-5-20-9)14-10-4-3-8(6-12(16)17)19-13(10)18/h1-2,5,8,10,18H,3-4,6-7H2,(H,14,15)(H,16,17)/t8-,10-/m0/s1

> <OPENEYE_INCHIKEY>
IOOWNWLVCOUUEX-WPRPVWTQSA-N

> <FORMULA>
C12H16BNO5S

> <minimizedAffinity>
-5.32644

> <CNNscore>
0.6399003863

> <CNNaffinity>
4.5748934746

> <CNN_VS>
2.9274761677

> <CNNaffinity_variance>
0.0622184686

$$$$
4D6


 23 24  0  0  0  0  0  0  0  0999 V2000
   13.6833    6.0555   26.0567 C   0  0  0  0  0  0  0  0  0  0  0  0
   14.3911    4.9637   26.8650 C   0  0  0  0  0  0  0  0  0  0  0  0
   13.5751    4.6329   28.1153 C   0  0  0  0  0  0  0  0  0  0  0  0
   13.5106    5.7815   28.9665 O   0  0  0  0  0  0  0  0  0  0  0  0
   12.9778    6.9305   28.3081 B   0  0  0  0  0  0  0  0  0  0  0  0
   11.9294    7.6910   28.8911 O   0  0  0  0  0  0  0  0  0  0  0  0
   13.5945    7.3268   26.9113 C   0  0  0  0  0  0  0  0  0  0  0  0
   11.6302    7.3564   29.7473 H   0  0  0  0  0  0  0  0  0  0  0  0
   15.0755    9.1618   27.5265 C   0  0  0  0  0  0  0  0  0  0  0  0
   14.9329    7.8902   27.1023 N   0  0  0  0  0  0  0  0  0  0  0  0
   14.0947    9.8397   27.7499 O   0  0  0  0  0  0  0  0  0  0  0  0
   15.7180    7.3479   26.9233 H   0  0  0  0  0  0  0  0  0  0  0  0
   16.4525    9.7412   27.7234 C   0  0  0  0  0  0  0  0  0  0  0  0
   16.9488    9.9108   31.6888 C   0  0  0  0  0  0  0  0  0  0  0  0
   16.6994    9.9609   29.1937 C   0  0  0  0  0  0  0  0  0  0  0  0
   17.3282   11.0512   31.1093 C   0  0  0  0  0  0  0  0  0  0  0  0
   16.3809    8.7862   30.4627 S   0  0  0  0  0  0  0  0  0  0  0  0
   17.1858   11.0803   29.7324 C   0  0  0  0  0  0  0  0  0  0  0  0
   14.2407    3.4779   28.8661 C   0  0  0  0  0  0  0  0  0  0  0  0
   12.0557    2.5954   28.8720 O   0  0  0  0  0  0  0  0  0  0  0  0
   13.1987    2.4559   29.2406 C   0  0  0  0  0  0  0  0  0  0  0  0
   13.5392    1.3915   29.9829 O   0  0  0  0  0  0  0  0  0  0  0  0
   12.8361    0.7626   30.1976 H   0  0  0  0  0  0  0  0  0  0  0  0
 20 21  2  0  0  0
 19 21  1  0  0  0
 21 22  1  0  0  0
  3 19  1  0  0  0
  2  3  1  0  0  0
  3  4  1  0  0  0
  1  2  1  0  0  0
  4  5  1  0  0  0
  1  7  1  0  0  0
  5  6  1  0  0  0
  5  7  1  0  0  0
  7 10  1  0  0  0
  9 10  1  0  0  0
  9 11  2  0  0  0
 14 17  1  0  0  0
 15 17  1  0  0  0
  9 13  1  0  0  0
 14 16  2  0  0  0
 15 13  1  0  0  0
 15 18  2  0  0  0
 16 18  1  0  0  0
 22 23  1  0  0  0
  6  8  1  0  0  0
 10 12  1  0  0  0
M  END
> <OPENEYE_ISO_SMILES>
B1([C@H](CC[C@H](O1)CC(=O)O)NC(=O)Cc2cccs2)O

> <OPENEYE_INCHI>
InChI=1S/C12H16BNO5S/c15-11(7-9-2-1-5-20-9)14-10-4-3-8(6-12(16)17)19-13(10)18/h1-2,5,8,10,18H,3-4,6-7H2,(H,14,15)(H,16,17)/t8-,10-/m0/s1

> <OPENEYE_INCHIKEY>
IOOWNWLVCOUUEX-WPRPVWTQSA-N

> <FORMULA>
C12H16BNO5S

> <minimizedAffinity>
-7.16075

> <CNNscore>
0.6357138157

> <CNNaffinity>
5.5750627518

> <CNN_VS>
3.5441443920

> <CNNaffinity_variance>
0.4432139993

$$$$
4D6


 23 24  0  0  0  0  0  0  0  0999 V2000
   15.2151    7.8257   27.0514 C   0  0  0  0  0  0  0  0  0  0  0  0
   15.4049    6.3070   26.9880 C   0  0  0  0  0  0  0  0  0  0  0  0
   14.0434    5.6122   27.0314 C   0  0  0  0  0  0  0  0  0  0  0  0
   13.4039    5.8827   28.2827 O   0  0  0  0  0  0  0  0  0  0  0  0
   13.2639    7.2791   28.5434 B   0  0  0  0  0  0  0  0  0  0  0  0
   12.0154    7.8318   28.9345 O   0  0  0  0  0  0  0  0  0  0  0  0
   14.5442    8.1867   28.3833 C   0  0  0  0  0  0  0  0  0  0  0  0
   11.3017    7.1831   29.0009 H   0  0  0  0  0  0  0  0  0  0  0  0
   16.0307    8.9701   30.1484 C   0  0  0  0  0  0  0  0  0  0  0  0
   15.4710    7.9359   29.4893 N   0  0  0  0  0  0  0  0  0  0  0  0
   15.7667   10.1090   29.8251 O   0  0  0  0  0  0  0  0  0  0  0  0
   15.6828    7.0244   29.7481 H   0  0  0  0  0  0  0  0  0  0  0  0
   16.9840    8.7119   31.2865 C   0  0  0  0  0  0  0  0  0  0  0  0
   19.4998    5.8414   30.0902 C   0  0  0  0  0  0  0  0  0  0  0  0
   17.8586    7.5314   30.9510 C   0  0  0  0  0  0  0  0  0  0  0  0
   18.6913    5.3984   31.0549 C   0  0  0  0  0  0  0  0  0  0  0  0
   19.1282    7.5224   29.7344 S   0  0  0  0  0  0  0  0  0  0  0  0
   17.7822    6.3302   31.5264 C   0  0  0  0  0  0  0  0  0  0  0  0
   14.2375    4.1028   26.8732 C   0  0  0  0  0  0  0  0  0  0  0  0
   13.1397    2.6429   28.3620 O   0  0  0  0  0  0  0  0  0  0  0  0
   14.0448    3.4293   28.2073 C   0  0  0  0  0  0  0  0  0  0  0  0
   14.8775    3.7025   29.2232 O   0  0  0  0  0  0  0  0  0  0  0  0
   14.7141    3.2454   30.0601 H   0  0  0  0  0  0  0  0  0  0  0  0
 20 21  2  0  0  0
 19 21  1  0  0  0
 21 22  1  0  0  0
  3 19  1  0  0  0
  2  3  1  0  0  0
  3  4  1  0  0  0
  1  2  1  0  0  0
  4  5  1  0  0  0
  1  7  1  0  0  0
  5  6  1  0  0  0
  5  7  1  0  0  0
  7 10  1  0  0  0
  9 10  1  0  0  0
  9 11  2  0  0  0
 14 17  1  0  0  0
 15 17  1  0  0  0
  9 13  1  0  0  0
 14 16  2  0  0  0
 15 13  1  0  0  0
 15 18  2  0  0  0
 16 18  1  0  0  0
 22 23  1  0  0  0
  6  8  1  0  0  0
 10 12  1  0  0  0
M  END
> <OPENEYE_ISO_SMILES>
B1([C@H](CC[C@H](O1)CC(=O)O)NC(=O)Cc2cccs2)O

> <OPENEYE_INCHI>
InChI=1S/C12H16BNO5S/c15-11(7-9-2-1-5-20-9)14-10-4-3-8(6-12(16)17)19-13(10)18/h1-2,5,8,10,18H,3-4,6-7H2,(H,14,15)(H,16,17)/t8-,10-/m0/s1

> <OPENEYE_INCHIKEY>
IOOWNWLVCOUUEX-WPRPVWTQSA-N

> <FORMULA>
C12H16BNO5S

> <minimizedAffinity>
-6.49412

> <CNNscore>
0.6161319613

> <CNNaffinity>
5.5202445984

> <CNN_VS>
3.4011991024

> <CNNaffinity_variance>
0.6130026579

$$$$
4D6


 23 24  0  0  0  0  0  0  0  0999 V2000
   15.1919    7.8479   26.9420 C   0  0  0  0  0  0  0  0  0  0  0  0
   15.4238    6.3338   26.9287 C   0  0  0  0  0  0  0  0  0  0  0  0
   14.0843    5.6032   27.0310 C   0  0  0  0  0  0  0  0  0  0  0  0
   13.4674    5.9016   28.2873 O   0  0  0  0  0  0  0  0  0  0  0  0
   13.2935    7.3022   28.5010 B   0  0  0  0  0  0  0  0  0  0  0  0
   12.0393    7.8337   28.9030 O   0  0  0  0  0  0  0  0  0  0  0  0
   14.5429    8.2387   28.2764 C   0  0  0  0  0  0  0  0  0  0  0  0
   11.3464    7.1682   29.0104 H   0  0  0  0  0  0  0  0  0  0  0  0
   15.9819    9.1249   30.0323 C   0  0  0  0  0  0  0  0  0  0  0  0
   15.5028    8.0546   29.3672 N   0  0  0  0  0  0  0  0  0  0  0  0
   15.6178   10.2409   29.7268 O   0  0  0  0  0  0  0  0  0  0  0  0
   15.7945    7.1615   29.6117 H   0  0  0  0  0  0  0  0  0  0  0  0
   16.9692    8.9353   31.1548 C   0  0  0  0  0  0  0  0  0  0  0  0
   20.6173   10.0451   29.9468 C   0  0  0  0  0  0  0  0  0  0  0  0
   18.3034    9.5085   30.7521 C   0  0  0  0  0  0  0  0  0  0  0  0
   19.9522   11.0760   30.4713 C   0  0  0  0  0  0  0  0  0  0  0  0
   19.6105    8.6049   29.9991 S   0  0  0  0  0  0  0  0  0  0  0  0
   18.6767   10.7783   30.9202 C   0  0  0  0  0  0  0  0  0  0  0  0
   14.3180    4.0951   26.9225 C   0  0  0  0  0  0  0  0  0  0  0  0
   14.9985    3.0592   28.9267 O   0  0  0  0  0  0  0  0  0  0  0  0
   14.0680    3.4507   28.2615 C   0  0  0  0  0  0  0  0  0  0  0  0
   12.8131    3.3115   28.7152 O   0  0  0  0  0  0  0  0  0  0  0  0
   12.7027    2.8922   29.5800 H   0  0  0  0  0  0  0  0  0  0  0  0
 20 21  2  0  0  0
 19 21  1  0  0  0
 21 22  1  0  0  0
  3 19  1  0  0  0
  2  3  1  0  0  0
  3  4  1  0  0  0
  1  2  1  0  0  0
  4  5  1  0  0  0
  1  7  1  0  0  0
  5  6  1  0  0  0
  5  7  1  0  0  0
  7 10  1  0  0  0
  9 10  1  0  0  0
  9 11  2  0  0  0
 14 17  1  0  0  0
 15 17  1  0  0  0
  9 13  1  0  0  0
 14 16  2  0  0  0
 15 13  1  0  0  0
 15 18  2  0  0  0
 16 18  1  0  0  0
 22 23  1  0  0  0
  6  8  1  0  0  0
 10 12  1  0  0  0
M  END
> <OPENEYE_ISO_SMILES>
B1([C@H](CC[C@H](O1)CC(=O)O)NC(=O)Cc2cccs2)O

> <OPENEYE_INCHI>
InChI=1S/C12H16BNO5S/c15-11(7-9-2-1-5-20-9)14-10-4-3-8(6-12(16)17)19-13(10)18/h1-2,5,8,10,18H,3-4,6-7H2,(H,14,15)(H,16,17)/t8-,10-/m0/s1

> <OPENEYE_INCHIKEY>
IOOWNWLVCOUUEX-WPRPVWTQSA-N

> <FORMULA>
C12H16BNO5S

> <minimizedAffinity>
-6.54733

> <CNNscore>
0.5146964192

> <CNNaffinity>
5.3104281425

> <CNN_VS>
2.7332582474

> <CNNaffinity_variance>
0.4476164281

$$$$
4D6


 23 24  0  0  0  0  0  0  0  0999 V2000
   15.9625    6.7624   29.2881 C   0  0  0  0  0  0  0  0  0  0  0  0
   16.6358    8.0345   28.7636 C   0  0  0  0  0  0  0  0  0  0  0  0
   15.7045    9.2318   28.9579 C   0  0  0  0  0  0  0  0  0  0  0  0
   14.5210    9.0540   28.1733 O   0  0  0  0  0  0  0  0  0  0  0  0
   13.8394    7.8345   28.4663 B   0  0  0  0  0  0  0  0  0  0  0  0
   12.4458    7.8193   28.7400 O   0  0  0  0  0  0  0  0  0  0  0  0
   14.6875    6.5043   28.4743 C   0  0  0  0  0  0  0  0  0  0  0  0
   12.0292    8.6911   28.7072 H   0  0  0  0  0  0  0  0  0  0  0  0
   14.4210    5.0990   26.5013 C   0  0  0  0  0  0  0  0  0  0  0  0
   15.0415    6.1340   27.1023 N   0  0  0  0  0  0  0  0  0  0  0  0
   13.5692    4.4741   27.0974 O   0  0  0  0  0  0  0  0  0  0  0  0
   15.7234    6.6337   26.6250 H   0  0  0  0  0  0  0  0  0  0  0  0
   14.7851    4.7182   25.0895 C   0  0  0  0  0  0  0  0  0  0  0  0
   17.3180    1.6590   25.5642 C   0  0  0  0  0  0  0  0  0  0  0  0
   15.6968    3.5185   25.1122 C   0  0  0  0  0  0  0  0  0  0  0  0
   16.7543    1.6310   24.3552 C   0  0  0  0  0  0  0  0  0  0  0  0
   16.7121    3.0410   26.4661 S   0  0  0  0  0  0  0  0  0  0  0  0
   15.8630    2.6605   24.1043 C   0  0  0  0  0  0  0  0  0  0  0  0
   16.4211   10.5100   28.5182 C   0  0  0  0  0  0  0  0  0  0  0  0
   17.7356   11.7947   29.9928 O   0  0  0  0  0  0  0  0  0  0  0  0
   16.6256   11.4069   29.7117 C   0  0  0  0  0  0  0  0  0  0  0  0
   15.5760   11.7747   30.4622 O   0  0  0  0  0  0  0  0  0  0  0  0
   15.7569   12.3513   31.2176 H   0  0  0  0  0  0  0  0  0  0  0  0
 20 21  2  0  0  0
 19 21  1  0  0  0
 21 22  1  0  0  0
  3 19  1  0  0  0
  2  3  1  0  0  0
  3  4  1  0  0  0
  1  2  1  0  0  0
  4  5  1  0  0  0
  1  7  1  0  0  0
  5  6  1  0  0  0
  5  7  1  0  0  0
  7 10  1  0  0  0
  9 10  1  0  0  0
  9 11  2  0  0  0
 14 17  1  0  0  0
 15 17  1  0  0  0
  9 13  1  0  0  0
 14 16  2  0  0  0
 15 13  1  0  0  0
 15 18  2  0  0  0
 16 18  1  0  0  0
 22 23  1  0  0  0
  6  8  1  0  0  0
 10 12  1  0  0  0
M  END
> <OPENEYE_ISO_SMILES>
B1([C@H](CC[C@H](O1)CC(=O)O)NC(=O)Cc2cccs2)O

> <OPENEYE_INCHI>
InChI=1S/C12H16BNO5S/c15-11(7-9-2-1-5-20-9)14-10-4-3-8(6-12(16)17)19-13(10)18/h1-2,5,8,10,18H,3-4,6-7H2,(H,14,15)(H,16,17)/t8-,10-/m0/s1

> <OPENEYE_INCHIKEY>
IOOWNWLVCOUUEX-WPRPVWTQSA-N

> <FORMULA>
C12H16BNO5S

> <minimizedAffinity>
-6.56434

> <CNNscore>
0.4706655145

> <CNNaffinity>
5.2239260674

> <CNN_VS>
2.4587218761

> <CNNaffinity_variance>
0.2825905383

$$$$
4D6


 23 24  0  0  0  0  0  0  0  0999 V2000
   -8.8002    1.8480   39.4788 C   0  0  0  0  0  0  0  0  0  0  0  0
   -8.9701    0.3270   39.5439 C   0  0  0  0  0  0  0  0  0  0  0  0
  -10.2803   -0.0185   40.2527 C   0  0  0  0  0  0  0  0  0  0  0  0
  -10.2289    0.4359   41.6087 O   0  0  0  0  0  0  0  0  0  0  0  0
   -9.9529    1.8323   41.7156 B   0  0  0  0  0  0  0  0  0  0  0  0
  -10.7577    2.6805   42.5218 O   0  0  0  0  0  0  0  0  0  0  0  0
   -8.7223    2.4001   40.9083 C   0  0  0  0  0  0  0  0  0  0  0  0
  -11.4827    2.2247   42.9703 H   0  0  0  0  0  0  0  0  0  0  0  0
   -6.5708    2.8827   41.9463 C   0  0  0  0  0  0  0  0  0  0  0  0
   -7.4734    1.9677   41.5394 N   0  0  0  0  0  0  0  0  0  0  0  0
   -6.7933    4.0647   41.7894 O   0  0  0  0  0  0  0  0  0  0  0  0
   -7.2949    1.0217   41.6648 H   0  0  0  0  0  0  0  0  0  0  0  0
   -5.2860    2.4376   42.5959 C   0  0  0  0  0  0  0  0  0  0  0  0
   -5.3237    4.0275   46.2661 C   0  0  0  0  0  0  0  0  0  0  0  0
   -5.1483    3.1001   43.9424 C   0  0  0  0  0  0  0  0  0  0  0  0
   -4.2023    4.3465   45.6173 C   0  0  0  0  0  0  0  0  0  0  0  0
   -6.3380    3.0279   45.2352 S   0  0  0  0  0  0  0  0  0  0  0  0
   -4.1080    3.8384   44.3328 C   0  0  0  0  0  0  0  0  0  0  0  0
  -10.4865   -1.5343   40.2297 C   0  0  0  0  0  0  0  0  0  0  0  0
   -9.8456   -2.8174   38.3600 O   0  0  0  0  0  0  0  0  0  0  0  0
  -10.6197   -2.0013   38.8033 C   0  0  0  0  0  0  0  0  0  0  0  0
  -11.5971   -1.5116   38.0255 O   0  0  0  0  0  0  0  0  0  0  0  0
  -11.6426   -1.8417   37.1172 H   0  0  0  0  0  0  0  0  0  0  0  0
 20 21  2  0  0  0
 19 21  1  0  0  0
 21 22  1  0  0  0
  3 19  1  0  0  0
  2  3  1  0  0  0
  3  4  1  0  0  0
  1  2  1  0  0  0
  4  5  1  0  0  0
  1  7  1  0  0  0
  5  6  1  0  0  0
  5  7  1  0  0  0
  7 10  1  0  0  0
  9 10  1  0  0  0
  9 11  2  0  0  0
 14 17  1  0  0  0
 15 17  1  0  0  0
  9 13  1  0  0  0
 14 16  2  0  0  0
 15 13  1  0  0  0
 15 18  2  0  0  0
 16 18  1  0  0  0
 22 23  1  0  0  0
  6  8  1  0  0  0
 10 12  1  0  0  0
M  END
> <OPENEYE_ISO_SMILES>
B1([C@H](CC[C@H](O1)CC(=O)O)NC(=O)Cc2cccs2)O

> <OPENEYE_INCHI>
InChI=1S/C12H16BNO5S/c15-11(7-9-2-1-5-20-9)14-10-4-3-8(6-12(16)17)19-13(10)18/h1-2,5,8,10,18H,3-4,6-7H2,(H,14,15)(H,16,17)/t8-,10-/m0/s1

> <OPENEYE_INCHIKEY>
IOOWNWLVCOUUEX-WPRPVWTQSA-N

> <FORMULA>
C12H16BNO5S

> <minimizedAffinity>
-4.38012

> <CNNscore>
0.3849485517

> <CNNaffinity>
4.0816221237

> <CNN_VS>
1.5712145567

> <CNNaffinity_variance>
0.0979899839

$$$$
4D6


 23 24  0  0  0  0  0  0  0  0999 V2000
   14.5299    1.1367   26.6911 C   0  0  0  0  0  0  0  0  0  0  0  0
   15.9110    0.5768   27.0457 C   0  0  0  0  0  0  0  0  0  0  0  0
   15.8122   -0.2895   28.3019 C   0  0  0  0  0  0  0  0  0  0  0  0
   15.4111    0.5176   29.4136 O   0  0  0  0  0  0  0  0  0  0  0  0
   14.1841    1.2094   29.1825 B   0  0  0  0  0  0  0  0  0  0  0  0
   13.1250    1.1623   30.1276 O   0  0  0  0  0  0  0  0  0  0  0  0
   14.0459    2.0291   27.8417 C   0  0  0  0  0  0  0  0  0  0  0  0
   13.3207    0.6310   30.9113 H   0  0  0  0  0  0  0  0  0  0  0  0
   14.3461    4.3851   28.3876 C   0  0  0  0  0  0  0  0  0  0  0  0
   14.8703    3.2376   27.9124 N   0  0  0  0  0  0  0  0  0  0  0  0
   13.1910    4.4165   28.7566 O   0  0  0  0  0  0  0  0  0  0  0  0
   15.7947    3.2127   27.6168 H   0  0  0  0  0  0  0  0  0  0  0  0
   15.1944    5.6283   28.4606 C   0  0  0  0  0  0  0  0  0  0  0  0
   14.3144    8.4744   25.7913 C   0  0  0  0  0  0  0  0  0  0  0  0
   14.7859    6.5799   27.3658 C   0  0  0  0  0  0  0  0  0  0  0  0
   13.8230    7.2934   25.4119 C   0  0  0  0  0  0  0  0  0  0  0  0
   15.1577    8.2981   27.3237 S   0  0  0  0  0  0  0  0  0  0  0  0
   14.0793    6.2488   26.2838 C   0  0  0  0  0  0  0  0  0  0  0  0
   17.1756   -0.9192   28.5939 C   0  0  0  0  0  0  0  0  0  0  0  0
   18.0419   -1.3046   30.7512 O   0  0  0  0  0  0  0  0  0  0  0  0
   17.1562   -1.5455   29.9644 C   0  0  0  0  0  0  0  0  0  0  0  0
   16.1564   -2.3703   30.3110 O   0  0  0  0  0  0  0  0  0  0  0  0
   16.1871   -2.7477   31.2013 H   0  0  0  0  0  0  0  0  0  0  0  0
 20 21  2  0  0  0
 19 21  1  0  0  0
 21 22  1  0  0  0
  3 19  1  0  0  0
  2  3  1  0  0  0
  3  4  1  0  0  0
  1  2  1  0  0  0
  4  5  1  0  0  0
  1  7  1  0  0  0
  5  6  1  0  0  0
  5  7  1  0  0  0
  7 10  1  0  0  0
  9 10  1  0  0  0
  9 11  2  0  0  0
 14 17  1  0  0  0
 15 17  1  0  0  0
  9 13  1  0  0  0
 14 16  2  0  0  0
 15 13  1  0  0  0
 15 18  2  0  0  0
 16 18  1  0  0  0
 22 23  1  0  0  0
  6  8  1  0  0  0
 10 12  1  0  0  0
M  END
> <OPENEYE_ISO_SMILES>
B1([C@H](CC[C@H](O1)CC(=O)O)NC(=O)Cc2cccs2)O

> <OPENEYE_INCHI>
InChI=1S/C12H16BNO5S/c15-11(7-9-2-1-5-20-9)14-10-4-3-8(6-12(16)17)19-13(10)18/h1-2,5,8,10,18H,3-4,6-7H2,(H,14,15)(H,16,17)/t8-,10-/m0/s1

> <OPENEYE_INCHIKEY>
IOOWNWLVCOUUEX-WPRPVWTQSA-N

> <FORMULA>
C12H16BNO5S

> <minimizedAffinity>
-6.50653

> <CNNscore>
0.3824558258

> <CNNaffinity>
4.7664222717

> <CNN_VS>
1.8229459524

> <CNNaffinity_variance>
0.0699379072

$$$$
4D6


 23 24  0  0  0  0  0  0  0  0999 V2000
   14.8689    5.0840   26.9194 C   0  0  0  0  0  0  0  0  0  0  0  0
   16.0691    4.1681   27.1788 C   0  0  0  0  0  0  0  0  0  0  0  0
   15.5990    2.8730   27.8422 C   0  0  0  0  0  0  0  0  0  0  0  0
   15.0354    3.1654   29.1247 O   0  0  0  0  0  0  0  0  0  0  0  0
   13.9690    4.1121   29.0590 B   0  0  0  0  0  0  0  0  0  0  0  0
   12.7219    3.8586   29.6894 O   0  0  0  0  0  0  0  0  0  0  0  0
   14.2245    5.4499   28.2630 C   0  0  0  0  0  0  0  0  0  0  0  0
   12.6787    3.0086   30.1480 H   0  0  0  0  0  0  0  0  0  0  0  0
   14.8024    7.6073   29.2378 C   0  0  0  0  0  0  0  0  0  0  0  0
   15.1261    6.3160   29.0258 N   0  0  0  0  0  0  0  0  0  0  0  0
   13.7637    8.0521   28.7963 O   0  0  0  0  0  0  0  0  0  0  0  0
   15.9576    5.9604   29.3790 H   0  0  0  0  0  0  0  0  0  0  0  0
   15.7300    8.4983   30.0229 C   0  0  0  0  0  0  0  0  0  0  0  0
   17.4611   11.3945   27.8745 C   0  0  0  0  0  0  0  0  0  0  0  0
   16.3966    9.4759   29.0896 C   0  0  0  0  0  0  0  0  0  0  0  0
   17.3778   10.2624   27.1732 C   0  0  0  0  0  0  0  0  0  0  0  0
   16.7709   11.1507   29.4729 S   0  0  0  0  0  0  0  0  0  0  0  0
   16.7856    9.2049   27.8426 C   0  0  0  0  0  0  0  0  0  0  0  0
   16.7896    1.9272   28.0115 C   0  0  0  0  0  0  0  0  0  0  0  0
   15.8781   -0.2398   28.1738 O   0  0  0  0  0  0  0  0  0  0  0  0
   16.3522    0.6999   28.7686 C   0  0  0  0  0  0  0  0  0  0  0  0
   16.4886    0.6503   30.1024 O   0  0  0  0  0  0  0  0  0  0  0  0
   16.1940   -0.1583   30.5443 H   0  0  0  0  0  0  0  0  0  0  0  0
 20 21  2  0  0  0
 19 21  1  0  0  0
 21 22  1  0  0  0
  3 19  1  0  0  0
  2  3  1  0  0  0
  3  4  1  0  0  0
  1  2  1  0  0  0
  4  5  1  0  0  0
  1  7  1  0  0  0
  5  6  1  0  0  0
  5  7  1  0  0  0
  7 10  1  0  0  0
  9 10  1  0  0  0
  9 11  2  0  0  0
 14 17  1  0  0  0
 15 17  1  0  0  0
  9 13  1  0  0  0
 14 16  2  0  0  0
 15 13  1  0  0  0
 15 18  2  0  0  0
 16 18  1  0  0  0
 22 23  1  0  0  0
  6  8  1  0  0  0
 10 12  1  0  0  0
M  END
> <OPENEYE_ISO_SMILES>
B1([C@H](CC[C@H](O1)CC(=O)O)NC(=O)Cc2cccs2)O

> <OPENEYE_INCHI>
InChI=1S/C12H16BNO5S/c15-11(7-9-2-1-5-20-9)14-10-4-3-8(6-12(16)17)19-13(10)18/h1-2,5,8,10,18H,3-4,6-7H2,(H,14,15)(H,16,17)/t8-,10-/m0/s1

> <OPENEYE_INCHIKEY>
IOOWNWLVCOUUEX-WPRPVWTQSA-N

> <FORMULA>
C12H16BNO5S

> <minimizedAffinity>
-5.79871

> <CNNscore>
0.3782732487

> <CNNaffinity>
5.0577163696

> <CNN_VS>
1.9131988287

> <CNNaffinity_variance>
0.2191876173

$$$$
