


 34 35  0  0  0  0  0  0  0  0999 V2000
   -9.8794  -11.9465    3.4428 C   0  0  0  0  0  0  0  0  0  0  0  0
   -8.2719   -6.6661    3.8054 C   0  0  0  0  0  0  0  0  0  0  0  0
   -7.3156   -9.1957    3.7653 C   0  0  0  0  0  0  0  0  0  0  0  0
   -8.4579   -8.1988    4.0345 C   0  0  0  0  0  0  0  0  0  0  0  0
   -9.7395   -8.5939    4.4475 C   0  0  0  0  0  0  0  0  0  0  0  0
  -10.1164   -9.8529    4.6857 N   0  0  0  0  0  0  0  0  0  0  0  0
   -7.5392  -10.8445    4.5811 S   0  0  0  0  0  0  0  0  0  0  0  0
   -9.3354  -11.0858    4.5801 C   0  0  0  0  0  0  0  0  0  0  0  0
  -10.8512   -7.5745    4.6612 C   0  0  0  0  0  0  0  0  0  0  0  0
  -11.1703   -6.8343    3.7331 O   0  0  0  0  0  0  0  0  0  0  0  0
  -11.4032   -7.4909    5.7175 O   0  0  0  0  0  0  0  0  0  0  0  0
  -11.1559   -8.0576    6.4215 H   0  0  0  0  0  0  0  0  0  0  0  0
   -7.1609   -5.9649    3.4040 O   0  0  0  0  0  0  0  0  0  0  0  0
   -6.9472   -6.0499    2.0229 C   0  0  0  0  0  0  0  0  0  0  0  0
   -7.9035   -5.6787    1.1574 N   0  0  0  0  0  0  0  0  0  0  0  0
   -5.8591   -6.4681    1.6110 O   0  0  0  0  0  0  0  0  0  0  0  0
   -7.7422   -5.7428    0.1883 H   0  0  0  0  0  0  0  0  0  0  0  0
   -8.7663   -5.3424    1.4916 H   0  0  0  0  0  0  0  0  0  0  0  0
  -10.1628  -13.2395    3.9946 N   0  0  0  0  0  0  0  0  0  0  0  0
  -11.3624  -13.6391    4.2627 C   0  0  0  0  0  0  0  0  0  0  0  0
  -12.2633  -12.6794    4.0930 O   0  0  0  0  0  0  0  0  0  0  0  0
   -9.4113  -13.8488    4.1770 H   0  0  0  0  0  0  0  0  0  0  0  0
  -11.7176  -15.1337    4.6253 C   0  0  0  0  0  0  0  0  0  0  0  0
  -11.0739  -16.2718    4.3605 N   0  0  0  0  0  0  0  0  0  0  0  0
  -15.0751  -15.9817    5.7116 C   0  0  0  0  0  0  0  0  0  0  0  0
  -15.2142  -15.9971    4.3859 C   0  0  0  0  0  0  0  0  0  0  0  0
  -13.8090  -15.6888    6.0267 C   0  0  0  0  0  0  0  0  0  0  0  0
  -13.9989  -15.6932    3.8480 O   0  0  0  0  0  0  0  0  0  0  0  0
  -13.1562  -15.4732    4.8925 C   0  0  0  0  0  0  0  0  0  0  0  0
   -9.6298  -16.6855    2.6259 C   0  0  0  0  0  0  0  0  0  0  0  0
   -9.7623  -16.1986    3.9737 O   0  0  0  0  0  0  0  0  0  0  0  0
   -8.9607  -11.7250    2.4245 C   0  0  0  0  0  0  0  0  0  0  0  0
   -9.3129  -11.9182    1.0617 O   0  0  0  0  0  0  0  0  0  0  0  0
   -9.4798  -12.8602    0.9013 H   0  0  0  0  0  0  0  0  0  0  0  0
 19  1  1  0  0  0
 19 20  1  0  0  0
  1  8  1  0  0  0
  1 32  1  0  0  0
 30 31  1  0  0  0
 25 26  2  0  0  0
 25 27  1  0  0  0
 26 28  1  0  0  0
 27 29  2  0  0  0
  2  4  2  0  0  0
  2 13  1  0  0  0
  3  4  1  0  0  0
  3  7  1  0  0  0
 14 15  1  0  0  0
 14 16  2  0  0  0
 14 13  1  0  0  0
  9  5  1  0  0  0
  9 10  2  0  0  0
  9 11  1  0  0  0
 20 23  1  0  0  0
 20 21  2  0  0  0
  4  5  1  0  0  0
 23 29  1  0  0  0
 23 24  2  0  0  0
  5  6  2  0  0  0
 32 33  1  0  0  0
 24 31  1  0  0  0
  6  8  1  0  0  0
 28 29  1  0  0  0
  7  8  1  0  0  0
 19 22  1  0  0  0
 33 34  1  0  0  0
 15 17  1  0  0  0
 15 18  1  0  0  0
 11 12  1  0  0  0
M  END
> <minimizedAffinity>
-7.41241

> <CNNscore>
0.5396957397

> <CNNaffinity>
5.3848695755

> <CNN_VS>
2.9061911106

> <CNNaffinity_variance>
0.0290823728

$$$$



 34 35  0  0  0  0  0  0  0  0999 V2000
  -11.8613  -15.4032    1.7059 C   0  0  0  0  0  0  0  0  0  0  0  0
   -8.4963  -12.2768    4.7882 C   0  0  0  0  0  0  0  0  0  0  0  0
   -8.8638  -13.1792    2.2652 C   0  0  0  0  0  0  0  0  0  0  0  0
   -9.0739  -13.3228    3.7839 C   0  0  0  0  0  0  0  0  0  0  0  0
   -9.8290  -14.3559    4.3596 C   0  0  0  0  0  0  0  0  0  0  0  0
  -10.4226  -15.3430    3.6835 N   0  0  0  0  0  0  0  0  0  0  0  0
   -9.1424  -14.7422    1.3094 S   0  0  0  0  0  0  0  0  0  0  0  0
  -10.4443  -15.5912    2.2416 C   0  0  0  0  0  0  0  0  0  0  0  0
  -10.0447  -14.4336    5.8656 C   0  0  0  0  0  0  0  0  0  0  0  0
  -11.0691  -13.9556    6.3485 O   0  0  0  0  0  0  0  0  0  0  0  0
   -9.2279  -14.9476    6.5700 O   0  0  0  0  0  0  0  0  0  0  0  0
   -8.4488  -15.3103    6.1966 H   0  0  0  0  0  0  0  0  0  0  0  0
   -7.7293  -11.1617    4.5531 O   0  0  0  0  0  0  0  0  0  0  0  0
   -8.4709   -9.9772    4.6377 C   0  0  0  0  0  0  0  0  0  0  0  0
   -7.9444   -8.8089    4.2384 N   0  0  0  0  0  0  0  0  0  0  0  0
   -9.6238  -10.0241    5.0820 O   0  0  0  0  0  0  0  0  0  0  0  0
   -8.4752   -7.9823    4.3025 H   0  0  0  0  0  0  0  0  0  0  0  0
   -7.0274   -8.7787    3.8814 H   0  0  0  0  0  0  0  0  0  0  0  0
  -12.7266  -16.2074    2.5189 N   0  0  0  0  0  0  0  0  0  0  0  0
  -13.9892  -15.9642    2.6514 C   0  0  0  0  0  0  0  0  0  0  0  0
  -14.3484  -14.8298    2.0637 O   0  0  0  0  0  0  0  0  0  0  0  0
  -12.3425  -16.9779    2.9966 H   0  0  0  0  0  0  0  0  0  0  0  0
  -15.0000  -16.9715    3.3258 C   0  0  0  0  0  0  0  0  0  0  0  0
  -16.1379  -17.4999    2.8720 N   0  0  0  0  0  0  0  0  0  0  0  0
  -14.6150  -17.0671    6.9333 C   0  0  0  0  0  0  0  0  0  0  0  0
  -15.8819  -17.4573    6.7921 C   0  0  0  0  0  0  0  0  0  0  0  0
  -14.0777  -16.8424    5.7297 C   0  0  0  0  0  0  0  0  0  0  0  0
  -16.1552  -17.4684    5.4565 O   0  0  0  0  0  0  0  0  0  0  0  0
  -15.0260  -17.0484    4.8257 C   0  0  0  0  0  0  0  0  0  0  0  0
  -17.4076  -16.4526    1.2731 C   0  0  0  0  0  0  0  0  0  0  0  0
  -16.3894  -17.4375    1.5273 O   0  0  0  0  0  0  0  0  0  0  0  0
  -11.6981  -15.5830    0.3380 C   0  0  0  0  0  0  0  0  0  0  0  0
  -12.8186  -15.6635   -0.5319 O   0  0  0  0  0  0  0  0  0  0  0  0
  -13.3193  -16.4718   -0.3401 H   0  0  0  0  0  0  0  0  0  0  0  0
 19  1  1  0  0  0
 19 20  1  0  0  0
  1  8  1  0  0  0
  1 32  1  0  0  0
 30 31  1  0  0  0
 25 26  2  0  0  0
 25 27  1  0  0  0
 26 28  1  0  0  0
 27 29  2  0  0  0
  2  4  2  0  0  0
  2 13  1  0  0  0
  3  4  1  0  0  0
  3  7  1  0  0  0
 14 15  1  0  0  0
 14 16  2  0  0  0
 14 13  1  0  0  0
  9  5  1  0  0  0
  9 10  2  0  0  0
  9 11  1  0  0  0
 20 23  1  0  0  0
 20 21  2  0  0  0
  4  5  1  0  0  0
 23 29  1  0  0  0
 23 24  2  0  0  0
  5  6  2  0  0  0
 32 33  1  0  0  0
 24 31  1  0  0  0
  6  8  1  0  0  0
 28 29  1  0  0  0
  7  8  1  0  0  0
 19 22  1  0  0  0
 33 34  1  0  0  0
 15 17  1  0  0  0
 15 18  1  0  0  0
 11 12  1  0  0  0
M  END
> <minimizedAffinity>
-7.64695

> <CNNscore>
0.3330962062

> <CNNaffinity>
5.2268419266

> <CNN_VS>
1.7410411835

> <CNNaffinity_variance>
0.0957593471

$$$$



 34 35  0  0  0  0  0  0  0  0999 V2000
   -9.6472  -12.5423    4.0434 C   0  0  0  0  0  0  0  0  0  0  0  0
  -14.2922  -15.4343    4.8551 C   0  0  0  0  0  0  0  0  0  0  0  0
  -11.9880  -14.7026    6.0677 C   0  0  0  0  0  0  0  0  0  0  0  0
  -12.8029  -14.9714    4.7892 C   0  0  0  0  0  0  0  0  0  0  0  0
  -12.2914  -14.7737    3.4976 C   0  0  0  0  0  0  0  0  0  0  0  0
  -11.0508  -14.3670    3.2159 N   0  0  0  0  0  0  0  0  0  0  0  0
  -10.1530  -14.6899    5.8093 S   0  0  0  0  0  0  0  0  0  0  0  0
   -9.9586  -14.0341    4.1310 C   0  0  0  0  0  0  0  0  0  0  0  0
  -13.1493  -15.0130    2.2616 C   0  0  0  0  0  0  0  0  0  0  0  0
  -13.1885  -16.1388    1.7696 O   0  0  0  0  0  0  0  0  0  0  0  0
  -13.7724  -14.1183    1.7728 O   0  0  0  0  0  0  0  0  0  0  0  0
  -13.7388  -13.2621    2.1520 H   0  0  0  0  0  0  0  0  0  0  0  0
  -15.0805  -15.7093    5.9460 O   0  0  0  0  0  0  0  0  0  0  0  0
  -16.3334  -16.2183    5.5834 C   0  0  0  0  0  0  0  0  0  0  0  0
  -16.7031  -17.4552    5.9506 N   0  0  0  0  0  0  0  0  0  0  0  0
  -17.0991  -15.5071    4.9225 O   0  0  0  0  0  0  0  0  0  0  0  0
  -17.5866  -17.8027    5.6900 H   0  0  0  0  0  0  0  0  0  0  0  0
  -16.0907  -18.0151    6.4805 H   0  0  0  0  0  0  0  0  0  0  0  0
   -9.0904  -12.3062    2.7432 N   0  0  0  0  0  0  0  0  0  0  0  0
   -9.0084  -11.1272    2.2197 C   0  0  0  0  0  0  0  0  0  0  0  0
   -9.6093  -10.2040    2.9599 O   0  0  0  0  0  0  0  0  0  0  0  0
   -8.7562  -13.0751    2.2271 H   0  0  0  0  0  0  0  0  0  0  0  0
   -8.1765  -10.8136    0.9154 C   0  0  0  0  0  0  0  0  0  0  0  0
   -7.4515   -9.7453    0.5794 N   0  0  0  0  0  0  0  0  0  0  0  0
   -9.0268  -12.1390   -2.3544 C   0  0  0  0  0  0  0  0  0  0  0  0
   -9.2826  -13.1860   -1.5699 C   0  0  0  0  0  0  0  0  0  0  0  0
   -8.6057  -11.1119   -1.6090 C   0  0  0  0  0  0  0  0  0  0  0  0
   -9.0031  -12.8100   -0.2896 O   0  0  0  0  0  0  0  0  0  0  0  0
   -8.5521  -11.5285   -0.3510 C   0  0  0  0  0  0  0  0  0  0  0  0
   -7.7101   -7.5954    1.3387 C   0  0  0  0  0  0  0  0  0  0  0  0
   -7.0878   -8.8723    1.5699 O   0  0  0  0  0  0  0  0  0  0  0  0
   -8.9679  -12.3007    5.2309 C   0  0  0  0  0  0  0  0  0  0  0  0
   -9.2309  -11.1390    6.0054 O   0  0  0  0  0  0  0  0  0  0  0  0
   -8.9459  -10.3521    5.5150 H   0  0  0  0  0  0  0  0  0  0  0  0
 19  1  1  0  0  0
 19 20  1  0  0  0
  1  8  1  0  0  0
  1 32  1  0  0  0
 30 31  1  0  0  0
 25 26  2  0  0  0
 25 27  1  0  0  0
 26 28  1  0  0  0
 27 29  2  0  0  0
  2  4  2  0  0  0
  2 13  1  0  0  0
  3  4  1  0  0  0
  3  7  1  0  0  0
 14 15  1  0  0  0
 14 16  2  0  0  0
 14 13  1  0  0  0
  9  5  1  0  0  0
  9 10  2  0  0  0
  9 11  1  0  0  0
 20 23  1  0  0  0
 20 21  2  0  0  0
  4  5  1  0  0  0
 23 29  1  0  0  0
 23 24  2  0  0  0
  5  6  2  0  0  0
 32 33  1  0  0  0
 24 31  1  0  0  0
  6  8  1  0  0  0
 28 29  1  0  0  0
  7  8  1  0  0  0
 19 22  1  0  0  0
 33 34  1  0  0  0
 15 17  1  0  0  0
 15 18  1  0  0  0
 11 12  1  0  0  0
M  END
> <minimizedAffinity>
-6.85920

> <CNNscore>
0.3186529577

> <CNNaffinity>
4.9685540199

> <CNN_VS>
1.5832444429

> <CNNaffinity_variance>
0.1695867032

$$$$



 34 35  0  0  0  0  0  0  0  0999 V2000
   -8.7779   -9.9881    4.4494 C   0  0  0  0  0  0  0  0  0  0  0  0
   -9.2325  -15.0260    2.2107 C   0  0  0  0  0  0  0  0  0  0  0  0
   -8.2544  -12.5509    1.7287 C   0  0  0  0  0  0  0  0  0  0  0  0
   -9.2406  -13.4843    2.4549 C   0  0  0  0  0  0  0  0  0  0  0  0
  -10.1650  -13.0314    3.4084 C   0  0  0  0  0  0  0  0  0  0  0  0
  -10.3272  -11.7581    3.7777 N   0  0  0  0  0  0  0  0  0  0  0  0
   -8.7551  -10.7668    1.7328 S   0  0  0  0  0  0  0  0  0  0  0  0
   -9.6186  -10.5650    3.3134 C   0  0  0  0  0  0  0  0  0  0  0  0
  -11.0930  -13.9985    4.1324 C   0  0  0  0  0  0  0  0  0  0  0  0
  -10.7365  -14.4787    5.2063 O   0  0  0  0  0  0  0  0  0  0  0  0
  -12.1516  -14.2911    3.6618 O   0  0  0  0  0  0  0  0  0  0  0  0
  -12.4183  -13.9220    2.8429 H   0  0  0  0  0  0  0  0  0  0  0  0
   -8.4599  -15.7779    1.3595 O   0  0  0  0  0  0  0  0  0  0  0  0
   -7.1467  -15.9258    1.8219 C   0  0  0  0  0  0  0  0  0  0  0  0
   -6.1220  -16.0119    0.9593 N   0  0  0  0  0  0  0  0  0  0  0  0
   -6.9436  -15.9706    3.0407 O   0  0  0  0  0  0  0  0  0  0  0  0
   -5.2027  -16.1157    1.2958 H   0  0  0  0  0  0  0  0  0  0  0  0
   -6.2898  -15.9712   -0.0100 H   0  0  0  0  0  0  0  0  0  0  0  0
   -7.8057   -9.1196    3.8518 N   0  0  0  0  0  0  0  0  0  0  0  0
   -7.8009   -7.8404    4.0374 C   0  0  0  0  0  0  0  0  0  0  0  0
   -8.8588   -7.4266    4.7236 O   0  0  0  0  0  0  0  0  0  0  0  0
   -7.1121   -9.5147    3.2754 H   0  0  0  0  0  0  0  0  0  0  0  0
   -6.6047   -6.9060    3.6044 C   0  0  0  0  0  0  0  0  0  0  0  0
   -5.3236   -6.9005    3.9767 N   0  0  0  0  0  0  0  0  0  0  0  0
   -7.0827   -3.4489    2.6086 C   0  0  0  0  0  0  0  0  0  0  0  0
   -8.0500   -4.0579    1.9226 C   0  0  0  0  0  0  0  0  0  0  0  0
   -6.4128   -4.3493    3.3356 C   0  0  0  0  0  0  0  0  0  0  0  0
   -7.9805   -5.3870    2.2184 O   0  0  0  0  0  0  0  0  0  0  0  0
   -6.9321   -5.5406    3.0709 C   0  0  0  0  0  0  0  0  0  0  0  0
   -3.4065   -8.0944    4.3828 C   0  0  0  0  0  0  0  0  0  0  0  0
   -4.8266   -8.0128    4.6020 O   0  0  0  0  0  0  0  0  0  0  0  0
   -8.4537  -11.1154    5.1937 C   0  0  0  0  0  0  0  0  0  0  0  0
   -9.2175  -11.4899    6.3316 O   0  0  0  0  0  0  0  0  0  0  0  0
   -9.1092  -10.8230    7.0276 H   0  0  0  0  0  0  0  0  0  0  0  0
 19  1  1  0  0  0
 19 20  1  0  0  0
  1  8  1  0  0  0
  1 32  1  0  0  0
 30 31  1  0  0  0
 25 26  2  0  0  0
 25 27  1  0  0  0
 26 28  1  0  0  0
 27 29  2  0  0  0
  2  4  2  0  0  0
  2 13  1  0  0  0
  3  4  1  0  0  0
  3  7  1  0  0  0
 14 15  1  0  0  0
 14 16  2  0  0  0
 14 13  1  0  0  0
  9  5  1  0  0  0
  9 10  2  0  0  0
  9 11  1  0  0  0
 20 23  1  0  0  0
 20 21  2  0  0  0
  4  5  1  0  0  0
 23 29  1  0  0  0
 23 24  2  0  0  0
  5  6  2  0  0  0
 32 33  1  0  0  0
 24 31  1  0  0  0
  6  8  1  0  0  0
 28 29  1  0  0  0
  7  8  1  0  0  0
 19 22  1  0  0  0
 33 34  1  0  0  0
 15 17  1  0  0  0
 15 18  1  0  0  0
 11 12  1  0  0  0
M  END
> <minimizedAffinity>
-5.61356

> <CNNscore>
0.3050247133

> <CNNaffinity>
4.8785696030

> <CNN_VS>
1.4880843163

> <CNNaffinity_variance>
0.0390733108

$$$$



 34 35  0  0  0  0  0  0  0  0999 V2000
   -8.7868  -11.1627    2.3870 C   0  0  0  0  0  0  0  0  0  0  0  0
   -8.7154   -5.6396    2.0891 C   0  0  0  0  0  0  0  0  0  0  0  0
   -7.4055   -7.8455    1.2328 C   0  0  0  0  0  0  0  0  0  0  0  0
   -8.3189   -7.1404    2.2525 C   0  0  0  0  0  0  0  0  0  0  0  0
   -8.8913   -7.7973    3.3524 C   0  0  0  0  0  0  0  0  0  0  0  0
   -8.6972   -9.0805    3.6679 N   0  0  0  0  0  0  0  0  0  0  0  0
   -6.6340   -9.4095    1.8593 S   0  0  0  0  0  0  0  0  0  0  0  0
   -7.8838  -10.0863    2.9838 C   0  0  0  0  0  0  0  0  0  0  0  0
   -9.8233   -7.0684    4.3120 C   0  0  0  0  0  0  0  0  0  0  0  0
  -11.0241   -7.0149    4.0546 O   0  0  0  0  0  0  0  0  0  0  0  0
   -9.3939   -6.5508    5.2995 O   0  0  0  0  0  0  0  0  0  0  0  0
   -8.4777   -6.5946    5.4909 H   0  0  0  0  0  0  0  0  0  0  0  0
   -8.3372   -4.7287    1.1329 O   0  0  0  0  0  0  0  0  0  0  0  0
   -7.3876   -3.8176    1.6107 C   0  0  0  0  0  0  0  0  0  0  0  0
   -7.7147   -2.5326    1.8188 N   0  0  0  0  0  0  0  0  0  0  0  0
   -6.2408   -4.2166    1.8440 O   0  0  0  0  0  0  0  0  0  0  0  0
   -7.0387   -1.9008    2.1550 H   0  0  0  0  0  0  0  0  0  0  0  0
   -8.6307   -2.2220    1.6353 H   0  0  0  0  0  0  0  0  0  0  0  0
   -8.6828  -12.3143    3.2352 N   0  0  0  0  0  0  0  0  0  0  0  0
   -9.6382  -12.6970    4.0172 C   0  0  0  0  0  0  0  0  0  0  0  0
  -10.6495  -11.8377    4.0355 O   0  0  0  0  0  0  0  0  0  0  0  0
   -7.8479  -12.8358    3.2213 H   0  0  0  0  0  0  0  0  0  0  0  0
   -9.6454  -14.0897    4.7599 C   0  0  0  0  0  0  0  0  0  0  0  0
   -8.8293  -15.1396    4.6523 N   0  0  0  0  0  0  0  0  0  0  0  0
  -12.8776  -15.4248    5.7304 C   0  0  0  0  0  0  0  0  0  0  0  0
  -12.5109  -14.7860    6.8415 C   0  0  0  0  0  0  0  0  0  0  0  0
  -11.9339  -15.2761    4.7949 C   0  0  0  0  0  0  0  0  0  0  0  0
  -11.2914  -14.2256    6.6021 O   0  0  0  0  0  0  0  0  0  0  0  0
  -10.9446  -14.5771    5.3350 C   0  0  0  0  0  0  0  0  0  0  0  0
   -7.5481  -15.7634    2.8537 C   0  0  0  0  0  0  0  0  0  0  0  0
   -7.6163  -14.9567    4.0436 O   0  0  0  0  0  0  0  0  0  0  0  0
   -8.4265  -11.1556    1.0453 C   0  0  0  0  0  0  0  0  0  0  0  0
   -9.3644  -11.4853    0.0303 O   0  0  0  0  0  0  0  0  0  0  0  0
   -9.6091  -12.4208    0.1077 H   0  0  0  0  0  0  0  0  0  0  0  0
 19  1  1  0  0  0
 19 20  1  0  0  0
  1  8  1  0  0  0
  1 32  1  0  0  0
 30 31  1  0  0  0
 25 26  2  0  0  0
 25 27  1  0  0  0
 26 28  1  0  0  0
 27 29  2  0  0  0
  2  4  2  0  0  0
  2 13  1  0  0  0
  3  4  1  0  0  0
  3  7  1  0  0  0
 14 15  1  0  0  0
 14 16  2  0  0  0
 14 13  1  0  0  0
  9  5  1  0  0  0
  9 10  2  0  0  0
  9 11  1  0  0  0
 20 23  1  0  0  0
 20 21  2  0  0  0
  4  5  1  0  0  0
 23 29  1  0  0  0
 23 24  2  0  0  0
  5  6  2  0  0  0
 32 33  1  0  0  0
 24 31  1  0  0  0
  6  8  1  0  0  0
 28 29  1  0  0  0
  7  8  1  0  0  0
 19 22  1  0  0  0
 33 34  1  0  0  0
 15 17  1  0  0  0
 15 18  1  0  0  0
 11 12  1  0  0  0
M  END
> <minimizedAffinity>
-7.41480

> <CNNscore>
0.3002643287

> <CNNaffinity>
4.8278198242

> <CNN_VS>
1.4496220350

> <CNNaffinity_variance>
0.2564202249

$$$$



 34 35  0  0  0  0  0  0  0  0999 V2000
   -8.6872  -11.8570    3.9461 C   0  0  0  0  0  0  0  0  0  0  0  0
   -7.6461   -6.5700    2.6960 C   0  0  0  0  0  0  0  0  0  0  0  0
   -9.2841   -8.1372    4.1712 C   0  0  0  0  0  0  0  0  0  0  0  0
   -8.3424   -7.9401    2.9689 C   0  0  0  0  0  0  0  0  0  0  0  0
   -8.0082   -8.9723    2.0789 C   0  0  0  0  0  0  0  0  0  0  0  0
   -8.4773  -10.2213    2.1392 N   0  0  0  0  0  0  0  0  0  0  0  0
  -10.3994   -9.6101    4.0281 S   0  0  0  0  0  0  0  0  0  0  0  0
   -9.4097  -10.8117    3.1001 C   0  0  0  0  0  0  0  0  0  0  0  0
   -7.0384   -8.7408    0.9271 C   0  0  0  0  0  0  0  0  0  0  0  0
   -5.8399   -8.9497    1.1032 O   0  0  0  0  0  0  0  0  0  0  0  0
   -7.4351   -8.3566   -0.1325 O   0  0  0  0  0  0  0  0  0  0  0  0
   -8.3497   -8.1989   -0.2612 H   0  0  0  0  0  0  0  0  0  0  0  0
   -7.7532   -5.3787    3.3714 O   0  0  0  0  0  0  0  0  0  0  0  0
   -8.7906   -4.5779    2.8785 C   0  0  0  0  0  0  0  0  0  0  0  0
   -8.5238   -3.4794    2.1550 N   0  0  0  0  0  0  0  0  0  0  0  0
   -9.9600   -4.9017    3.1157 O   0  0  0  0  0  0  0  0  0  0  0  0
   -9.2613   -2.9238    1.8135 H   0  0  0  0  0  0  0  0  0  0  0  0
   -7.5906   -3.2292    1.9658 H   0  0  0  0  0  0  0  0  0  0  0  0
   -9.5165  -13.0268    3.9647 N   0  0  0  0  0  0  0  0  0  0  0  0
   -9.0646  -14.2012    4.2604 C   0  0  0  0  0  0  0  0  0  0  0  0
   -7.7460  -14.2110    4.4102 O   0  0  0  0  0  0  0  0  0  0  0  0
  -10.4709  -12.9313    3.7427 H   0  0  0  0  0  0  0  0  0  0  0  0
   -9.9969  -15.4450    4.5350 C   0  0  0  0  0  0  0  0  0  0  0  0
  -10.0909  -16.6194    3.9091 N   0  0  0  0  0  0  0  0  0  0  0  0
  -13.3103  -15.1413    5.9844 C   0  0  0  0  0  0  0  0  0  0  0  0
  -12.6082  -14.3079    6.7524 C   0  0  0  0  0  0  0  0  0  0  0  0
  -12.5110  -15.6768    5.0558 C   0  0  0  0  0  0  0  0  0  0  0  0
  -11.3223  -14.3271    6.2999 O   0  0  0  0  0  0  0  0  0  0  0  0
  -11.2870  -15.2127    5.2684 C   0  0  0  0  0  0  0  0  0  0  0  0
   -9.5560  -17.0902    1.7278 C   0  0  0  0  0  0  0  0  0  0  0  0
   -9.0685  -16.9938    3.0785 O   0  0  0  0  0  0  0  0  0  0  0  0
   -8.3350  -11.1408    5.0832 C   0  0  0  0  0  0  0  0  0  0  0  0
   -7.3553  -11.6319    5.9874 O   0  0  0  0  0  0  0  0  0  0  0  0
   -7.6881  -12.4335    6.4206 H   0  0  0  0  0  0  0  0  0  0  0  0
 19  1  1  0  0  0
 19 20  1  0  0  0
  1  8  1  0  0  0
  1 32  1  0  0  0
 30 31  1  0  0  0
 25 26  2  0  0  0
 25 27  1  0  0  0
 26 28  1  0  0  0
 27 29  2  0  0  0
  2  4  2  0  0  0
  2 13  1  0  0  0
  3  4  1  0  0  0
  3  7  1  0  0  0
 14 15  1  0  0  0
 14 16  2  0  0  0
 14 13  1  0  0  0
  9  5  1  0  0  0
  9 10  2  0  0  0
  9 11  1  0  0  0
 20 23  1  0  0  0
 20 21  2  0  0  0
  4  5  1  0  0  0
 23 29  1  0  0  0
 23 24  2  0  0  0
  5  6  2  0  0  0
 32 33  1  0  0  0
 24 31  1  0  0  0
  6  8  1  0  0  0
 28 29  1  0  0  0
  7  8  1  0  0  0
 19 22  1  0  0  0
 33 34  1  0  0  0
 15 17  1  0  0  0
 15 18  1  0  0  0
 11 12  1  0  0  0
M  END
> <minimizedAffinity>
-6.89832

> <CNNscore>
0.2862633765

> <CNNaffinity>
4.4095621109

> <CNN_VS>
1.2622960806

> <CNNaffinity_variance>
0.8493533134

$$$$



 34 35  0  0  0  0  0  0  0  0999 V2000
   -7.2059  -16.1298   -1.2442 C   0  0  0  0  0  0  0  0  0  0  0  0
   -8.6927  -15.1011    3.9836 C   0  0  0  0  0  0  0  0  0  0  0  0
   -6.6308  -16.0032    2.4837 C   0  0  0  0  0  0  0  0  0  0  0  0
   -8.1383  -15.7590    2.6812 C   0  0  0  0  0  0  0  0  0  0  0  0
   -9.0985  -16.0571    1.7024 C   0  0  0  0  0  0  0  0  0  0  0  0
   -8.8390  -16.6075    0.5135 N   0  0  0  0  0  0  0  0  0  0  0  0
   -6.2289  -17.2403    1.1639 S   0  0  0  0  0  0  0  0  0  0  0  0
   -7.5538  -17.0184   -0.0527 C   0  0  0  0  0  0  0  0  0  0  0  0
  -10.5755  -15.7591    1.9263 C   0  0  0  0  0  0  0  0  0  0  0  0
  -11.0313  -14.6802    1.5529 O   0  0  0  0  0  0  0  0  0  0  0  0
  -11.2819  -16.5601    2.4619 O   0  0  0  0  0  0  0  0  0  0  0  0
  -10.9293  -17.3809    2.7446 H   0  0  0  0  0  0  0  0  0  0  0  0
   -8.0283  -14.6912    5.1139 O   0  0  0  0  0  0  0  0  0  0  0  0
   -8.6483  -13.5971    5.7294 C   0  0  0  0  0  0  0  0  0  0  0  0
   -7.9295  -12.7085    6.4330 N   0  0  0  0  0  0  0  0  0  0  0  0
   -9.8712  -13.4582    5.6103 O   0  0  0  0  0  0  0  0  0  0  0  0
   -8.3761  -11.9430    6.8615 H   0  0  0  0  0  0  0  0  0  0  0  0
   -6.9555  -12.8222    6.5205 H   0  0  0  0  0  0  0  0  0  0  0  0
   -7.8170  -14.8542   -1.0079 N   0  0  0  0  0  0  0  0  0  0  0  0
   -7.2243  -13.7348   -1.2659 C   0  0  0  0  0  0  0  0  0  0  0  0
   -5.9631  -13.9071   -1.6416 O   0  0  0  0  0  0  0  0  0  0  0  0
   -8.7271  -14.8299   -0.6331 H   0  0  0  0  0  0  0  0  0  0  0  0
   -7.9631  -12.3400   -1.2558 C   0  0  0  0  0  0  0  0  0  0  0  0
   -8.1170  -11.4277   -2.2170 N   0  0  0  0  0  0  0  0  0  0  0  0
   -8.6919  -11.0194    2.0452 C   0  0  0  0  0  0  0  0  0  0  0  0
   -7.9818  -10.0245    1.5131 C   0  0  0  0  0  0  0  0  0  0  0  0
   -8.8222  -12.0057    1.1517 C   0  0  0  0  0  0  0  0  0  0  0  0
   -7.6442  -10.4006    0.2469 O   0  0  0  0  0  0  0  0  0  0  0  0
   -8.1508  -11.6495    0.0648 C   0  0  0  0  0  0  0  0  0  0  0  0
   -9.1069  -12.2461   -4.1185 C   0  0  0  0  0  0  0  0  0  0  0  0
   -7.8787  -11.8051   -3.5116 O   0  0  0  0  0  0  0  0  0  0  0  0
   -7.5069  -16.9419   -2.3304 C   0  0  0  0  0  0  0  0  0  0  0  0
   -8.8041  -17.4973   -2.4962 O   0  0  0  0  0  0  0  0  0  0  0  0
   -8.9748  -18.1372   -1.7875 H   0  0  0  0  0  0  0  0  0  0  0  0
 19  1  1  0  0  0
 19 20  1  0  0  0
  1  8  1  0  0  0
  1 32  1  0  0  0
 30 31  1  0  0  0
 25 26  2  0  0  0
 25 27  1  0  0  0
 26 28  1  0  0  0
 27 29  2  0  0  0
  2  4  2  0  0  0
  2 13  1  0  0  0
  3  4  1  0  0  0
  3  7  1  0  0  0
 14 15  1  0  0  0
 14 16  2  0  0  0
 14 13  1  0  0  0
  9  5  1  0  0  0
  9 10  2  0  0  0
  9 11  1  0  0  0
 20 23  1  0  0  0
 20 21  2  0  0  0
  4  5  1  0  0  0
 23 29  1  0  0  0
 23 24  2  0  0  0
  5  6  2  0  0  0
 32 33  1  0  0  0
 24 31  1  0  0  0
  6  8  1  0  0  0
 28 29  1  0  0  0
  7  8  1  0  0  0
 19 22  1  0  0  0
 33 34  1  0  0  0
 15 17  1  0  0  0
 15 18  1  0  0  0
 11 12  1  0  0  0
M  END
> <minimizedAffinity>
-5.55253

> <CNNscore>
0.2687743604

> <CNNaffinity>
4.6139364243

> <CNN_VS>
1.2401077747

> <CNNaffinity_variance>
0.1864072680

$$$$



 34 35  0  0  0  0  0  0  0  0999 V2000
   -9.5631   -8.4001    4.4708 C   0  0  0  0  0  0  0  0  0  0  0  0
   -5.5072   -6.6258    1.1541 C   0  0  0  0  0  0  0  0  0  0  0  0
   -5.9594   -7.7005    3.5946 C   0  0  0  0  0  0  0  0  0  0  0  0
   -6.4405   -6.8896    2.3772 C   0  0  0  0  0  0  0  0  0  0  0  0
   -7.7438   -6.3831    2.2593 C   0  0  0  0  0  0  0  0  0  0  0  0
   -8.7036   -6.5085    3.1796 N   0  0  0  0  0  0  0  0  0  0  0  0
   -6.9804   -7.4552    5.1214 S   0  0  0  0  0  0  0  0  0  0  0  0
   -8.6526   -7.1749    4.4813 C   0  0  0  0  0  0  0  0  0  0  0  0
   -8.1874   -5.6219    1.0165 C   0  0  0  0  0  0  0  0  0  0  0  0
   -8.5971   -6.2519    0.0437 O   0  0  0  0  0  0  0  0  0  0  0  0
   -8.1339   -4.4287    0.9842 O   0  0  0  0  0  0  0  0  0  0  0  0
   -7.8208   -3.9535    1.7286 H   0  0  0  0  0  0  0  0  0  0  0  0
   -4.1965   -6.9849    0.9541 O   0  0  0  0  0  0  0  0  0  0  0  0
   -3.9377   -7.3384   -0.3757 C   0  0  0  0  0  0  0  0  0  0  0  0
   -2.8905   -8.1185   -0.6862 N   0  0  0  0  0  0  0  0  0  0  0  0
   -4.6937   -6.9245   -1.2622 O   0  0  0  0  0  0  0  0  0  0  0  0
   -2.7183   -8.3607   -1.6247 H   0  0  0  0  0  0  0  0  0  0  0  0
   -2.2947   -8.4485    0.0247 H   0  0  0  0  0  0  0  0  0  0  0  0
   -9.1608   -9.2115    3.3589 N   0  0  0  0  0  0  0  0  0  0  0  0
   -9.1793  -10.5036    3.3915 C   0  0  0  0  0  0  0  0  0  0  0  0
   -9.4819  -10.9732    4.5954 O   0  0  0  0  0  0  0  0  0  0  0  0
   -8.8575   -8.7653    2.5354 H   0  0  0  0  0  0  0  0  0  0  0  0
   -8.9886  -11.4060    2.1106 C   0  0  0  0  0  0  0  0  0  0  0  0
   -8.8993  -12.7310    1.9828 N   0  0  0  0  0  0  0  0  0  0  0  0
   -7.6616  -10.2432   -1.0609 C   0  0  0  0  0  0  0  0  0  0  0  0
   -7.0518   -9.4250   -0.2031 C   0  0  0  0  0  0  0  0  0  0  0  0
   -8.4413  -11.0972   -0.3896 C   0  0  0  0  0  0  0  0  0  0  0  0
   -7.4692   -9.7673    1.0488 O   0  0  0  0  0  0  0  0  0  0  0  0
   -8.3577  -10.7856    0.8968 C   0  0  0  0  0  0  0  0  0  0  0  0
   -8.1748  -14.1746    3.6127 C   0  0  0  0  0  0  0  0  0  0  0  0
   -9.3114  -13.5114    3.0299 O   0  0  0  0  0  0  0  0  0  0  0  0
  -10.8287   -7.8426    4.6032 C   0  0  0  0  0  0  0  0  0  0  0  0
  -11.2497   -6.7689    3.7734 O   0  0  0  0  0  0  0  0  0  0  0  0
  -10.7237   -5.9792    3.9748 H   0  0  0  0  0  0  0  0  0  0  0  0
 19  1  1  0  0  0
 19 20  1  0  0  0
  1  8  1  0  0  0
  1 32  1  0  0  0
 30 31  1  0  0  0
 25 26  2  0  0  0
 25 27  1  0  0  0
 26 28  1  0  0  0
 27 29  2  0  0  0
  2  4  2  0  0  0
  2 13  1  0  0  0
  3  4  1  0  0  0
  3  7  1  0  0  0
 14 15  1  0  0  0
 14 16  2  0  0  0
 14 13  1  0  0  0
  9  5  1  0  0  0
  9 10  2  0  0  0
  9 11  1  0  0  0
 20 23  1  0  0  0
 20 21  2  0  0  0
  4  5  1  0  0  0
 23 29  1  0  0  0
 23 24  2  0  0  0
  5  6  2  0  0  0
 32 33  1  0  0  0
 24 31  1  0  0  0
  6  8  1  0  0  0
 28 29  1  0  0  0
  7  8  1  0  0  0
 19 22  1  0  0  0
 33 34  1  0  0  0
 15 17  1  0  0  0
 15 18  1  0  0  0
 11 12  1  0  0  0
M  END
> <minimizedAffinity>
-5.70847

> <CNNscore>
0.2569959760

> <CNNaffinity>
4.3823575974

> <CNN_VS>
1.1262482405

> <CNNaffinity_variance>
0.6088587046

$$$$



 34 35  0  0  0  0  0  0  0  0999 V2000
   -9.0485   -5.7588    2.8772 C   0  0  0  0  0  0  0  0  0  0  0  0
   -8.0251  -10.9421    4.5155 C   0  0  0  0  0  0  0  0  0  0  0  0
  -10.0467   -9.2188    4.0065 C   0  0  0  0  0  0  0  0  0  0  0  0
   -8.5795   -9.4885    4.3887 C   0  0  0  0  0  0  0  0  0  0  0  0
   -7.6405   -8.4666    4.5959 C   0  0  0  0  0  0  0  0  0  0  0  0
   -7.8989   -7.1584    4.5215 N   0  0  0  0  0  0  0  0  0  0  0  0
  -10.6377   -7.5123    4.4218 S   0  0  0  0  0  0  0  0  0  0  0  0
   -9.1605   -6.4827    4.2164 C   0  0  0  0  0  0  0  0  0  0  0  0
   -6.1885   -8.7825    4.9316 C   0  0  0  0  0  0  0  0  0  0  0  0
   -5.3677   -8.8625    4.0200 O   0  0  0  0  0  0  0  0  0  0  0  0
   -5.8513   -8.9554    6.0647 O   0  0  0  0  0  0  0  0  0  0  0  0
   -6.4811   -8.8932    6.7556 H   0  0  0  0  0  0  0  0  0  0  0  0
   -8.6713  -12.1458    4.3718 O   0  0  0  0  0  0  0  0  0  0  0  0
   -8.8965  -12.7798    5.5996 C   0  0  0  0  0  0  0  0  0  0  0  0
   -7.9423  -12.8047    6.5433 N   0  0  0  0  0  0  0  0  0  0  0  0
   -9.9928  -13.3134    5.8046 O   0  0  0  0  0  0  0  0  0  0  0  0
   -8.1119  -13.2534    7.4030 H   0  0  0  0  0  0  0  0  0  0  0  0
   -7.0730  -12.3742    6.3757 H   0  0  0  0  0  0  0  0  0  0  0  0
   -7.8421   -6.2178    2.2524 N   0  0  0  0  0  0  0  0  0  0  0  0
   -7.6650   -6.1985    0.9721 C   0  0  0  0  0  0  0  0  0  0  0  0
   -8.7606   -5.8353    0.3171 O   0  0  0  0  0  0  0  0  0  0  0  0
   -7.1176   -6.5623    2.8231 H   0  0  0  0  0  0  0  0  0  0  0  0
   -6.2666   -6.4548    0.2864 C   0  0  0  0  0  0  0  0  0  0  0  0
   -5.7631   -7.5506   -0.2843 N   0  0  0  0  0  0  0  0  0  0  0  0
   -3.3070   -4.6925    1.4293 C   0  0  0  0  0  0  0  0  0  0  0  0
   -4.0314   -3.6935    0.9249 C   0  0  0  0  0  0  0  0  0  0  0  0
   -3.9793   -5.8417    1.3052 C   0  0  0  0  0  0  0  0  0  0  0  0
   -5.1934   -4.2322    0.4577 O   0  0  0  0  0  0  0  0  0  0  0  0
   -5.1158   -5.5722    0.6769 C   0  0  0  0  0  0  0  0  0  0  0  0
   -6.6574   -9.5399    0.4288 C   0  0  0  0  0  0  0  0  0  0  0  0
   -6.6259   -8.5585   -0.6235 O   0  0  0  0  0  0  0  0  0  0  0  0
   -9.2839   -4.4343    3.2241 C   0  0  0  0  0  0  0  0  0  0  0  0
   -9.2798   -3.4056    2.2441 O   0  0  0  0  0  0  0  0  0  0  0  0
   -8.3838   -3.3028    1.8870 H   0  0  0  0  0  0  0  0  0  0  0  0
 19  1  1  0  0  0
 19 20  1  0  0  0
  1  8  1  0  0  0
  1 32  1  0  0  0
 30 31  1  0  0  0
 25 26  2  0  0  0
 25 27  1  0  0  0
 26 28  1  0  0  0
 27 29  2  0  0  0
  2  4  2  0  0  0
  2 13  1  0  0  0
  3  4  1  0  0  0
  3  7  1  0  0  0
 14 15  1  0  0  0
 14 16  2  0  0  0
 14 13  1  0  0  0
  9  5  1  0  0  0
  9 10  2  0  0  0
  9 11  1  0  0  0
 20 23  1  0  0  0
 20 21  2  0  0  0
  4  5  1  0  0  0
 23 29  1  0  0  0
 23 24  2  0  0  0
  5  6  2  0  0  0
 32 33  1  0  0  0
 24 31  1  0  0  0
  6  8  1  0  0  0
 28 29  1  0  0  0
  7  8  1  0  0  0
 19 22  1  0  0  0
 33 34  1  0  0  0
 15 17  1  0  0  0
 15 18  1  0  0  0
 11 12  1  0  0  0
M  END
> <minimizedAffinity>
-6.17760

> <CNNscore>
0.2328072786

> <CNNaffinity>
4.4414949417

> <CNN_VS>
1.0340123177

> <CNNaffinity_variance>
0.9096552730

$$$$
