1TE


 27 30  0  0  0  0  0  0  0  0999 V2000
   17.4409    3.4429   25.7217 C   0  0  0  0  0  0  0  0  0  0  0  0
   16.5077    4.1044   26.6567 N   0  0  0  0  0  0  0  0  0  0  0  0
   16.3445    5.4333   26.5744 C   0  0  0  0  0  0  0  0  0  0  0  0
   17.0528    6.3762   26.8590 O   0  0  0  0  0  0  0  0  0  0  0  0
   14.9634    5.3245   25.9995 C   0  0  0  0  0  0  0  0  0  0  0  0
   15.1360    3.8297   26.2262 C   0  0  0  0  0  0  0  0  0  0  0  0
   15.2168    2.9888   24.9358 C   0  0  0  0  0  0  0  0  0  0  0  0
   15.1470    3.8858   23.6987 C   0  0  0  0  0  0  0  0  0  0  0  0
   16.6127    2.3196   25.0516 C   0  0  0  0  0  0  0  0  0  0  0  0
   18.4078    1.8702   27.3625 O   0  0  0  0  0  0  0  0  0  0  0  0
   18.6079    2.8561   26.4739 C   0  0  0  0  0  0  0  0  0  0  0  0
   19.7245    3.2743   26.2770 O   0  0  0  0  0  0  0  0  0  0  0  0
   19.1862    1.5268   27.8197 H   0  0  0  0  0  0  0  0  0  0  0  0
   13.8772    5.9630   26.8675 C   0  0  0  0  0  0  0  0  0  0  0  0
   13.3229    7.2014   26.1603 C   0  0  0  0  0  0  0  0  0  0  0  0
   12.8219    5.0226   27.0775 O   0  0  0  0  0  0  0  0  0  0  0  0
   12.3965    4.7194   26.2643 H   0  0  0  0  0  0  0  0  0  0  0  0
   17.2738    1.9079   23.4128 S   0  0  0  0  0  0  0  0  0  0  0  0
   16.7271    0.1964   23.1701 C   0  0  0  0  0  0  0  0  0  0  0  0
   17.8390   -0.7621   22.7205 C   0  0  0  0  0  0  0  0  0  0  0  0
   16.1541   -0.0893   21.7749 C   0  0  0  0  0  0  0  0  0  0  0  0
   17.5294   -0.3839   21.3294 N   0  0  0  0  0  0  0  0  0  0  0  0
   17.5555   -1.4913   20.4959 C   0  0  0  0  0  0  0  0  0  0  0  0
   17.1428   -2.6763   20.8219 N   0  0  0  0  0  0  0  0  0  0  0  0
   17.2409   -3.6172   19.8999 C   0  0  0  0  0  0  0  0  0  0  0  0
   17.7614   -3.2086   18.7430 C   0  0  0  0  0  0  0  0  0  0  0  0
   18.1304   -1.4915   18.8862 S   0  0  0  0  0  0  0  0  0  0  0  0
 14 16  1  0  0  0
 14 15  1  0  0  0
  5 14  1  0  0  0
 11 12  2  0  0  0
  3  5  1  0  0  0
  5  6  1  0  0  0
  3  4  2  0  0  0
  2  3  1  0  0  0
  2  6  1  0  0  0
  6  7  1  0  0  0
  1  2  1  0  0  0
 10 11  1  0  0  0
 11  1  1  0  0  0
  7  9  1  0  0  0
  7  8  1  0  0  0
  1  9  1  0  0  0
  9 18  1  0  0  0
 24 25  2  0  0  0
 23 24  2  0  0  0
 20 22  1  0  0  0
 19 20  1  0  0  0
 25 26  2  0  0  0
 18 19  1  0  0  0
 22 23  1  0  0  0
 23 27  1  0  0  0
 21 22  1  0  0  0
 19 21  1  0  0  0
 26 27  1  0  0  0
 10 13  1  0  0  0
 16 17  1  0  0  0
M  END
> <OPENEYE_ISO_SMILES>
C[C@@H]1[C@@H]2[C@H](C(=O)N2[C@H]([C@@H]1SC3CN(C3)c4nccs4)C(=O)O)[C@@H](C)O

> <OPENEYE_INCHI>
InChI=1S/C16H21N3O4S2/c1-7-11-10(8(2)20)14(21)19(11)12(15(22)23)13(7)25-9-5-18(6-9)16-17-3-4-24-16/h3-4,7-13,20H,5-6H2,1-2H3,(H,22,23)/t7-,8-,10-,11-,12-,13-/m1/s1

> <OPENEYE_INCHIKEY>
YKLAKHLDAXNBOF-IOJHDDLYSA-N

> <FORMULA>
C16H21N3O4S2

> <minimizedAffinity>
-4.96450

> <CNNscore>
0.5596006513

> <CNNaffinity>
4.6498646736

> <CNN_VS>
2.6020672321

> <CNNaffinity_variance>
0.1048069820

$$$$
1TE


 27 30  0  0  0  0  0  0  0  0999 V2000
   17.4431   -1.3492   29.0357 C   0  0  0  0  0  0  0  0  0  0  0  0
   16.1543   -0.9482   28.4350 N   0  0  0  0  0  0  0  0  0  0  0  0
   15.1683   -0.5285   29.2418 C   0  0  0  0  0  0  0  0  0  0  0  0
   14.4451   -1.0957   30.0337 O   0  0  0  0  0  0  0  0  0  0  0  0
   15.2896    0.9013   28.8053 C   0  0  0  0  0  0  0  0  0  0  0  0
   16.3134    0.3676   27.8139 C   0  0  0  0  0  0  0  0  0  0  0  0
   17.7619    0.8290   28.0744 C   0  0  0  0  0  0  0  0  0  0  0  0
   17.8357    1.7021   29.3283 C   0  0  0  0  0  0  0  0  0  0  0  0
   18.5128   -0.5119   28.2932 C   0  0  0  0  0  0  0  0  0  0  0  0
   17.1250   -3.4486   27.7741 O   0  0  0  0  0  0  0  0  0  0  0  0
   17.6864   -2.8209   28.8193 C   0  0  0  0  0  0  0  0  0  0  0  0
   18.3871   -3.4363   29.5881 O   0  0  0  0  0  0  0  0  0  0  0  0
   17.3100   -4.3918   27.6775 H   0  0  0  0  0  0  0  0  0  0  0  0
   14.0246    1.4606   28.1512 C   0  0  0  0  0  0  0  0  0  0  0  0
   13.0868    1.9985   29.2339 C   0  0  0  0  0  0  0  0  0  0  0  0
   14.3783    2.5194   27.2591 O   0  0  0  0  0  0  0  0  0  0  0  0
   14.8309    3.2594   27.6855 H   0  0  0  0  0  0  0  0  0  0  0  0
   19.9864   -0.2706   29.3239 S   0  0  0  0  0  0  0  0  0  0  0  0
   21.3387   -0.7783   28.2283 C   0  0  0  0  0  0  0  0  0  0  0  0
   21.0030   -1.9747   27.3264 C   0  0  0  0  0  0  0  0  0  0  0  0
   22.3316   -1.7593   28.8673 C   0  0  0  0  0  0  0  0  0  0  0  0
   21.4531   -2.8566   28.4189 N   0  0  0  0  0  0  0  0  0  0  0  0
   22.1958   -3.9184   27.9262 C   0  0  0  0  0  0  0  0  0  0  0  0
   23.4338   -3.8467   27.5479 N   0  0  0  0  0  0  0  0  0  0  0  0
   23.9879   -4.9609   27.1043 C   0  0  0  0  0  0  0  0  0  0  0  0
   23.1808   -6.0214   27.1069 C   0  0  0  0  0  0  0  0  0  0  0  0
   21.6146   -5.5144   27.7355 S   0  0  0  0  0  0  0  0  0  0  0  0
 14 16  1  0  0  0
 14 15  1  0  0  0
  5 14  1  0  0  0
 11 12  2  0  0  0
  3  5  1  0  0  0
  5  6  1  0  0  0
  3  4  2  0  0  0
  2  3  1  0  0  0
  2  6  1  0  0  0
  6  7  1  0  0  0
  1  2  1  0  0  0
 10 11  1  0  0  0
 11  1  1  0  0  0
  7  9  1  0  0  0
  7  8  1  0  0  0
  1  9  1  0  0  0
  9 18  1  0  0  0
 24 25  2  0  0  0
 23 24  2  0  0  0
 20 22  1  0  0  0
 19 20  1  0  0  0
 25 26  2  0  0  0
 18 19  1  0  0  0
 22 23  1  0  0  0
 23 27  1  0  0  0
 21 22  1  0  0  0
 19 21  1  0  0  0
 26 27  1  0  0  0
 10 13  1  0  0  0
 16 17  1  0  0  0
M  END
> <OPENEYE_ISO_SMILES>
C[C@@H]1[C@@H]2[C@H](C(=O)N2[C@H]([C@@H]1SC3CN(C3)c4nccs4)C(=O)O)[C@@H](C)O

> <OPENEYE_INCHI>
InChI=1S/C16H21N3O4S2/c1-7-11-10(8(2)20)14(21)19(11)12(15(22)23)13(7)25-9-5-18(6-9)16-17-3-4-24-16/h3-4,7-13,20H,5-6H2,1-2H3,(H,22,23)/t7-,8-,10-,11-,12-,13-/m1/s1

> <OPENEYE_INCHIKEY>
YKLAKHLDAXNBOF-IOJHDDLYSA-N

> <FORMULA>
C16H21N3O4S2

> <minimizedAffinity>
-4.28984

> <CNNscore>
0.3783733249

> <CNNaffinity>
4.3442277908

> <CNN_VS>
1.6437399387

> <CNNaffinity_variance>
0.0822143182

$$$$
1TE


 27 30  0  0  0  0  0  0  0  0999 V2000
   14.5691    4.7512   28.2525 C   0  0  0  0  0  0  0  0  0  0  0  0
   13.9943    5.9821   27.6719 N   0  0  0  0  0  0  0  0  0  0  0  0
   14.3113    7.1644   28.2207 C   0  0  0  0  0  0  0  0  0  0  0  0
   14.0100    7.7024   29.2655 O   0  0  0  0  0  0  0  0  0  0  0  0
   15.1768    7.5762   27.0670 C   0  0  0  0  0  0  0  0  0  0  0  0
   14.6942    6.2849   26.4226 C   0  0  0  0  0  0  0  0  0  0  0  0
   15.7869    5.2129   26.2341 C   0  0  0  0  0  0  0  0  0  0  0  0
   17.1248    5.6977   26.7955 C   0  0  0  0  0  0  0  0  0  0  0  0
   15.2418    4.0204   27.0651 C   0  0  0  0  0  0  0  0  0  0  0  0
   12.8090    4.3156   29.9296 O   0  0  0  0  0  0  0  0  0  0  0  0
   13.4805    3.8943   28.8465 C   0  0  0  0  0  0  0  0  0  0  0  0
   13.2127    2.8268   28.3472 O   0  0  0  0  0  0  0  0  0  0  0  0
   12.1207    3.7318   30.2739 H   0  0  0  0  0  0  0  0  0  0  0  0
   14.6994    8.8427   26.3535 C   0  0  0  0  0  0  0  0  0  0  0  0
   15.8149    9.8897   26.3738 C   0  0  0  0  0  0  0  0  0  0  0  0
   14.3656    8.5291   24.9998 O   0  0  0  0  0  0  0  0  0  0  0  0
   15.1013    8.1711   24.4852 H   0  0  0  0  0  0  0  0  0  0  0  0
   16.5943    2.9534   27.6347 S   0  0  0  0  0  0  0  0  0  0  0  0
   16.1039    1.3154   27.0317 C   0  0  0  0  0  0  0  0  0  0  0  0
   17.1599    0.6240   26.1576 C   0  0  0  0  0  0  0  0  0  0  0  0
   15.2925    1.3416   25.7288 C   0  0  0  0  0  0  0  0  0  0  0  0
   16.5720    1.3139   24.9946 N   0  0  0  0  0  0  0  0  0  0  0  0
   16.4986    0.4671   23.8996 C   0  0  0  0  0  0  0  0  0  0  0  0
   16.0262    0.7948   22.7376 N   0  0  0  0  0  0  0  0  0  0  0  0
   16.0339   -0.1406   21.8046 C   0  0  0  0  0  0  0  0  0  0  0  0
   16.5344   -1.3118   22.1971 C   0  0  0  0  0  0  0  0  0  0  0  0
   17.0241   -1.1593   23.8829 S   0  0  0  0  0  0  0  0  0  0  0  0
 14 16  1  0  0  0
 14 15  1  0  0  0
  5 14  1  0  0  0
 11 12  2  0  0  0
  3  5  1  0  0  0
  5  6  1  0  0  0
  3  4  2  0  0  0
  2  3  1  0  0  0
  2  6  1  0  0  0
  6  7  1  0  0  0
  1  2  1  0  0  0
 10 11  1  0  0  0
 11  1  1  0  0  0
  7  9  1  0  0  0
  7  8  1  0  0  0
  1  9  1  0  0  0
  9 18  1  0  0  0
 24 25  2  0  0  0
 23 24  2  0  0  0
 20 22  1  0  0  0
 19 20  1  0  0  0
 25 26  2  0  0  0
 18 19  1  0  0  0
 22 23  1  0  0  0
 23 27  1  0  0  0
 21 22  1  0  0  0
 19 21  1  0  0  0
 26 27  1  0  0  0
 10 13  1  0  0  0
 16 17  1  0  0  0
M  END
> <OPENEYE_ISO_SMILES>
C[C@@H]1[C@@H]2[C@H](C(=O)N2[C@H]([C@@H]1SC3CN(C3)c4nccs4)C(=O)O)[C@@H](C)O

> <OPENEYE_INCHI>
InChI=1S/C16H21N3O4S2/c1-7-11-10(8(2)20)14(21)19(11)12(15(22)23)13(7)25-9-5-18(6-9)16-17-3-4-24-16/h3-4,7-13,20H,5-6H2,1-2H3,(H,22,23)/t7-,8-,10-,11-,12-,13-/m1/s1

> <OPENEYE_INCHIKEY>
YKLAKHLDAXNBOF-IOJHDDLYSA-N

> <FORMULA>
C16H21N3O4S2

> <minimizedAffinity>
-7.16419

> <CNNscore>
0.3720078766

> <CNNaffinity>
5.3360366821

> <CNN_VS>
1.9850476980

> <CNNaffinity_variance>
0.1304879934

$$$$
1TE


 27 30  0  0  0  0  0  0  0  0999 V2000
   14.2419    2.5269   28.5969 C   0  0  0  0  0  0  0  0  0  0  0  0
   13.6114    3.5889   27.7860 N   0  0  0  0  0  0  0  0  0  0  0  0
   13.7406    4.8648   28.1795 C   0  0  0  0  0  0  0  0  0  0  0  0
   13.2699    5.5022   29.0981 O   0  0  0  0  0  0  0  0  0  0  0  0
   14.6828    5.2133   27.0657 C   0  0  0  0  0  0  0  0  0  0  0  0
   14.4120    3.7974   26.5785 C   0  0  0  0  0  0  0  0  0  0  0  0
   15.6242    2.8470   26.6585 C   0  0  0  0  0  0  0  0  0  0  0  0
   16.8331    3.5601   27.2669 C   0  0  0  0  0  0  0  0  0  0  0  0
   15.1157    1.7244   27.6023 C   0  0  0  0  0  0  0  0  0  0  0  0
   11.9384    1.6436   28.7154 O   0  0  0  0  0  0  0  0  0  0  0  0
   13.1882    1.6371   29.2050 C   0  0  0  0  0  0  0  0  0  0  0  0
   13.4689    0.9176   30.1346 O   0  0  0  0  0  0  0  0  0  0  0  0
   11.2983    1.0566   29.1382 H   0  0  0  0  0  0  0  0  0  0  0  0
   14.1600    6.3035   26.1281 C   0  0  0  0  0  0  0  0  0  0  0  0
   14.9192    7.6061   26.3884 C   0  0  0  0  0  0  0  0  0  0  0  0
   14.3584    5.8999   24.7717 O   0  0  0  0  0  0  0  0  0  0  0  0
   15.2830    5.7417   24.5387 H   0  0  0  0  0  0  0  0  0  0  0  0
   16.4989    0.9144   28.4526 S   0  0  0  0  0  0  0  0  0  0  0  0
   16.0300   -0.8366   28.4188 C   0  0  0  0  0  0  0  0  0  0  0  0
   16.6742   -1.6825   29.5264 C   0  0  0  0  0  0  0  0  0  0  0  0
   16.8959   -1.7020   27.4926 C   0  0  0  0  0  0  0  0  0  0  0  0
   17.8221   -1.8923   28.6252 N   0  0  0  0  0  0  0  0  0  0  0  0
   18.2692   -3.2029   28.6870 C   0  0  0  0  0  0  0  0  0  0  0  0
   19.1548   -3.6471   29.5232 N   0  0  0  0  0  0  0  0  0  0  0  0
   19.4626   -4.9292   29.4419 C   0  0  0  0  0  0  0  0  0  0  0  0
   18.8082   -5.5980   28.4927 C   0  0  0  0  0  0  0  0  0  0  0  0
   17.7280   -4.4704   27.6760 S   0  0  0  0  0  0  0  0  0  0  0  0
 14 16  1  0  0  0
 14 15  1  0  0  0
  5 14  1  0  0  0
 11 12  2  0  0  0
  3  5  1  0  0  0
  5  6  1  0  0  0
  3  4  2  0  0  0
  2  3  1  0  0  0
  2  6  1  0  0  0
  6  7  1  0  0  0
  1  2  1  0  0  0
 10 11  1  0  0  0
 11  1  1  0  0  0
  7  9  1  0  0  0
  7  8  1  0  0  0
  1  9  1  0  0  0
  9 18  1  0  0  0
 24 25  2  0  0  0
 23 24  2  0  0  0
 20 22  1  0  0  0
 19 20  1  0  0  0
 25 26  2  0  0  0
 18 19  1  0  0  0
 22 23  1  0  0  0
 23 27  1  0  0  0
 21 22  1  0  0  0
 19 21  1  0  0  0
 26 27  1  0  0  0
 10 13  1  0  0  0
 16 17  1  0  0  0
M  END
> <OPENEYE_ISO_SMILES>
C[C@@H]1[C@@H]2[C@H](C(=O)N2[C@H]([C@@H]1SC3CN(C3)c4nccs4)C(=O)O)[C@@H](C)O

> <OPENEYE_INCHI>
InChI=1S/C16H21N3O4S2/c1-7-11-10(8(2)20)14(21)19(11)12(15(22)23)13(7)25-9-5-18(6-9)16-17-3-4-24-16/h3-4,7-13,20H,5-6H2,1-2H3,(H,22,23)/t7-,8-,10-,11-,12-,13-/m1/s1

> <OPENEYE_INCHIKEY>
YKLAKHLDAXNBOF-IOJHDDLYSA-N

> <FORMULA>
C16H21N3O4S2

> <minimizedAffinity>
-7.24935

> <CNNscore>
0.3540771306

> <CNNaffinity>
5.1004228592

> <CNN_VS>
1.8059431314

> <CNNaffinity_variance>
0.1615880430

$$$$
1TE


 27 30  0  0  0  0  0  0  0  0999 V2000
   -6.1229   18.8637   33.3682 C   0  0  0  0  0  0  0  0  0  0  0  0
   -4.6711   18.7305   33.6075 N   0  0  0  0  0  0  0  0  0  0  0  0
   -4.2025   18.9079   34.8518 C   0  0  0  0  0  0  0  0  0  0  0  0
   -4.0716   19.8854   35.5583 O   0  0  0  0  0  0  0  0  0  0  0  0
   -3.9007   17.4520   35.0488 C   0  0  0  0  0  0  0  0  0  0  0  0
   -4.3198   17.3096   33.5928 C   0  0  0  0  0  0  0  0  0  0  0  0
   -5.6230   16.5142   33.3737 C   0  0  0  0  0  0  0  0  0  0  0  0
   -6.2263   16.0825   34.7115 C   0  0  0  0  0  0  0  0  0  0  0  0
   -6.5389   17.5484   32.6657 C   0  0  0  0  0  0  0  0  0  0  0  0
   -7.6243   20.5953   32.4474 O   0  0  0  0  0  0  0  0  0  0  0  0
   -6.4001   20.0455   32.4746 C   0  0  0  0  0  0  0  0  0  0  0  0
   -5.5194   20.4978   31.7815 O   0  0  0  0  0  0  0  0  0  0  0  0
   -7.7534   21.3504   31.8590 H   0  0  0  0  0  0  0  0  0  0  0  0
   -2.4217   17.1528   35.3014 C   0  0  0  0  0  0  0  0  0  0  0  0
   -2.2446   16.6290   36.7280 C   0  0  0  0  0  0  0  0  0  0  0  0
   -1.9705   16.1651   34.3724 O   0  0  0  0  0  0  0  0  0  0  0  0
   -2.4456   15.3253   34.4282 H   0  0  0  0  0  0  0  0  0  0  0  0
   -8.2898   17.1746   32.9604 S   0  0  0  0  0  0  0  0  0  0  0  0
   -9.0510   17.4840   31.3443 C   0  0  0  0  0  0  0  0  0  0  0  0
   -9.8555   16.2996   30.7900 C   0  0  0  0  0  0  0  0  0  0  0  0
   -8.1310   17.1953   30.1498 C   0  0  0  0  0  0  0  0  0  0  0  0
   -8.6045   15.7985   30.1917 N   0  0  0  0  0  0  0  0  0  0  0  0
   -8.8259   15.3101   28.9134 C   0  0  0  0  0  0  0  0  0  0  0  0
   -9.0214   14.0630   28.6181 N   0  0  0  0  0  0  0  0  0  0  0  0
   -9.2182   13.7749   27.3440 C   0  0  0  0  0  0  0  0  0  0  0  0
   -9.1860   14.8265   26.5257 C   0  0  0  0  0  0  0  0  0  0  0  0
   -8.8877   16.2658   27.4976 S   0  0  0  0  0  0  0  0  0  0  0  0
 14 16  1  0  0  0
 14 15  1  0  0  0
  5 14  1  0  0  0
 11 12  2  0  0  0
  3  5  1  0  0  0
  5  6  1  0  0  0
  3  4  2  0  0  0
  2  3  1  0  0  0
  2  6  1  0  0  0
  6  7  1  0  0  0
  1  2  1  0  0  0
 10 11  1  0  0  0
 11  1  1  0  0  0
  7  9  1  0  0  0
  7  8  1  0  0  0
  1  9  1  0  0  0
  9 18  1  0  0  0
 24 25  2  0  0  0
 23 24  2  0  0  0
 20 22  1  0  0  0
 19 20  1  0  0  0
 25 26  2  0  0  0
 18 19  1  0  0  0
 22 23  1  0  0  0
 23 27  1  0  0  0
 21 22  1  0  0  0
 19 21  1  0  0  0
 26 27  1  0  0  0
 10 13  1  0  0  0
 16 17  1  0  0  0
M  END
> <OPENEYE_ISO_SMILES>
C[C@@H]1[C@@H]2[C@H](C(=O)N2[C@H]([C@@H]1SC3CN(C3)c4nccs4)C(=O)O)[C@@H](C)O

> <OPENEYE_INCHI>
InChI=1S/C16H21N3O4S2/c1-7-11-10(8(2)20)14(21)19(11)12(15(22)23)13(7)25-9-5-18(6-9)16-17-3-4-24-16/h3-4,7-13,20H,5-6H2,1-2H3,(H,22,23)/t7-,8-,10-,11-,12-,13-/m1/s1

> <OPENEYE_INCHIKEY>
YKLAKHLDAXNBOF-IOJHDDLYSA-N

> <FORMULA>
C16H21N3O4S2

> <minimizedAffinity>
-4.82827

> <CNNscore>
0.3326332867

> <CNNaffinity>
3.9160163403

> <CNN_VS>
1.3025974035

> <CNNaffinity_variance>
0.3528702855

$$$$
1TE


 27 30  0  0  0  0  0  0  0  0999 V2000
   16.4178    4.9808   28.9779 C   0  0  0  0  0  0  0  0  0  0  0  0
   15.6263    6.2135   28.7863 N   0  0  0  0  0  0  0  0  0  0  0  0
   15.8427    6.9565   27.6906 C   0  0  0  0  0  0  0  0  0  0  0  0
   16.7561    7.6743   27.3412 O   0  0  0  0  0  0  0  0  0  0  0  0
   14.5395    6.5720   27.0555 C   0  0  0  0  0  0  0  0  0  0  0  0
   14.2740    5.8442   28.3653 C   0  0  0  0  0  0  0  0  0  0  0  0
   14.2304    4.3068   28.2492 C   0  0  0  0  0  0  0  0  0  0  0  0
   14.5162    3.8631   26.8134 C   0  0  0  0  0  0  0  0  0  0  0  0
   15.3730    3.8604   29.2004 C   0  0  0  0  0  0  0  0  0  0  0  0
   17.0207    6.0130   31.1393 O   0  0  0  0  0  0  0  0  0  0  0  0
   17.3095    5.1134   30.1859 C   0  0  0  0  0  0  0  0  0  0  0  0
   18.2856    4.4094   30.2957 O   0  0  0  0  0  0  0  0  0  0  0  0
   17.6216    6.0611   31.8940 H   0  0  0  0  0  0  0  0  0  0  0  0
   13.6008    7.7528   26.7998 C   0  0  0  0  0  0  0  0  0  0  0  0
   13.8576    8.3135   25.3996 C   0  0  0  0  0  0  0  0  0  0  0  0
   12.2447    7.3120   26.8946 O   0  0  0  0  0  0  0  0  0  0  0  0
   12.0106    6.6187   26.2631 H   0  0  0  0  0  0  0  0  0  0  0  0
   16.0329    2.2432   28.7089 S   0  0  0  0  0  0  0  0  0  0  0  0
   17.4422    2.6802   27.6555 C   0  0  0  0  0  0  0  0  0  0  0  0
   17.4662    1.9546   26.3027 C   0  0  0  0  0  0  0  0  0  0  0  0
   18.7088    1.8557   27.9251 C   0  0  0  0  0  0  0  0  0  0  0  0
   18.1998    0.8594   26.9632 N   0  0  0  0  0  0  0  0  0  0  0  0
   19.2194    0.3848   26.1527 C   0  0  0  0  0  0  0  0  0  0  0  0
   19.0822    0.0431   24.9097 N   0  0  0  0  0  0  0  0  0  0  0  0
   20.1642   -0.3882   24.2862 C   0  0  0  0  0  0  0  0  0  0  0  0
   21.2648   -0.4131   25.0374 C   0  0  0  0  0  0  0  0  0  0  0  0
   20.8422    0.1713   26.6452 S   0  0  0  0  0  0  0  0  0  0  0  0
 14 16  1  0  0  0
 14 15  1  0  0  0
  5 14  1  0  0  0
 11 12  2  0  0  0
  3  5  1  0  0  0
  5  6  1  0  0  0
  3  4  2  0  0  0
  2  3  1  0  0  0
  2  6  1  0  0  0
  6  7  1  0  0  0
  1  2  1  0  0  0
 10 11  1  0  0  0
 11  1  1  0  0  0
  7  9  1  0  0  0
  7  8  1  0  0  0
  1  9  1  0  0  0
  9 18  1  0  0  0
 24 25  2  0  0  0
 23 24  2  0  0  0
 20 22  1  0  0  0
 19 20  1  0  0  0
 25 26  2  0  0  0
 18 19  1  0  0  0
 22 23  1  0  0  0
 23 27  1  0  0  0
 21 22  1  0  0  0
 19 21  1  0  0  0
 26 27  1  0  0  0
 10 13  1  0  0  0
 16 17  1  0  0  0
M  END
> <OPENEYE_ISO_SMILES>
C[C@@H]1[C@@H]2[C@H](C(=O)N2[C@H]([C@@H]1SC3CN(C3)c4nccs4)C(=O)O)[C@@H](C)O

> <OPENEYE_INCHI>
InChI=1S/C16H21N3O4S2/c1-7-11-10(8(2)20)14(21)19(11)12(15(22)23)13(7)25-9-5-18(6-9)16-17-3-4-24-16/h3-4,7-13,20H,5-6H2,1-2H3,(H,22,23)/t7-,8-,10-,11-,12-,13-/m1/s1

> <OPENEYE_INCHIKEY>
YKLAKHLDAXNBOF-IOJHDDLYSA-N

> <FORMULA>
C16H21N3O4S2

> <minimizedAffinity>
-5.13689

> <CNNscore>
0.3214963675

> <CNNaffinity>
4.6812915802

> <CNN_VS>
1.5050182343

> <CNNaffinity_variance>
0.2711667120

$$$$
1TE


 27 30  0  0  0  0  0  0  0  0999 V2000
   19.1686   10.5607   30.0305 C   0  0  0  0  0  0  0  0  0  0  0  0
   17.7401   10.7427   29.7003 N   0  0  0  0  0  0  0  0  0  0  0  0
   17.3919   10.9287   28.4183 C   0  0  0  0  0  0  0  0  0  0  0  0
   17.5280   11.8550   27.6468 O   0  0  0  0  0  0  0  0  0  0  0  0
   16.7731    9.5685   28.2890 C   0  0  0  0  0  0  0  0  0  0  0  0
   17.0700    9.4436   29.7763 C   0  0  0  0  0  0  0  0  0  0  0  0
   18.1407    8.3920   30.1320 C   0  0  0  0  0  0  0  0  0  0  0  0
   18.6982    7.7365   28.8673 C   0  0  0  0  0  0  0  0  0  0  0  0
   19.2317    9.2413   30.8378 C   0  0  0  0  0  0  0  0  0  0  0  0
   20.9717   12.0100   30.8957 O   0  0  0  0  0  0  0  0  0  0  0  0
   19.6633   11.7119   30.8683 C   0  0  0  0  0  0  0  0  0  0  0  0
   18.8810   12.3667   31.5163 O   0  0  0  0  0  0  0  0  0  0  0  0
   21.2405   12.7560   31.4473 H   0  0  0  0  0  0  0  0  0  0  0  0
   15.2805    9.5946   27.9537 C   0  0  0  0  0  0  0  0  0  0  0  0
   15.0902    9.3375   26.4575 C   0  0  0  0  0  0  0  0  0  0  0  0
   14.6071    8.5791   28.7004 O   0  0  0  0  0  0  0  0  0  0  0  0
   14.9245    7.6835   28.5230 H   0  0  0  0  0  0  0  0  0  0  0  0
   20.8621    8.4593   30.6873 S   0  0  0  0  0  0  0  0  0  0  0  0
   20.9386    7.3899   32.1493 C   0  0  0  0  0  0  0  0  0  0  0  0
   21.7290    7.9844   33.3237 C   0  0  0  0  0  0  0  0  0  0  0  0
   22.0830    6.3672   32.1215 C   0  0  0  0  0  0  0  0  0  0  0  0
   22.9454    7.3961   32.7337 N   0  0  0  0  0  0  0  0  0  0  0  0
   23.7568    6.8459   33.7137 C   0  0  0  0  0  0  0  0  0  0  0  0
   25.0416    7.0024   33.7885 N   0  0  0  0  0  0  0  0  0  0  0  0
   25.6582    6.4053   34.7927 C   0  0  0  0  0  0  0  0  0  0  0  0
   24.8580    5.7118   35.6020 C   0  0  0  0  0  0  0  0  0  0  0  0
   23.2080    5.8676   35.0034 S   0  0  0  0  0  0  0  0  0  0  0  0
 14 16  1  0  0  0
 14 15  1  0  0  0
  5 14  1  0  0  0
 11 12  2  0  0  0
  3  5  1  0  0  0
  5  6  1  0  0  0
  3  4  2  0  0  0
  2  3  1  0  0  0
  2  6  1  0  0  0
  6  7  1  0  0  0
  1  2  1  0  0  0
 10 11  1  0  0  0
 11  1  1  0  0  0
  7  9  1  0  0  0
  7  8  1  0  0  0
  1  9  1  0  0  0
  9 18  1  0  0  0
 24 25  2  0  0  0
 23 24  2  0  0  0
 20 22  1  0  0  0
 19 20  1  0  0  0
 25 26  2  0  0  0
 18 19  1  0  0  0
 22 23  1  0  0  0
 23 27  1  0  0  0
 21 22  1  0  0  0
 19 21  1  0  0  0
 26 27  1  0  0  0
 10 13  1  0  0  0
 16 17  1  0  0  0
M  END
> <OPENEYE_ISO_SMILES>
C[C@@H]1[C@@H]2[C@H](C(=O)N2[C@H]([C@@H]1SC3CN(C3)c4nccs4)C(=O)O)[C@@H](C)O

> <OPENEYE_INCHI>
InChI=1S/C16H21N3O4S2/c1-7-11-10(8(2)20)14(21)19(11)12(15(22)23)13(7)25-9-5-18(6-9)16-17-3-4-24-16/h3-4,7-13,20H,5-6H2,1-2H3,(H,22,23)/t7-,8-,10-,11-,12-,13-/m1/s1

> <OPENEYE_INCHIKEY>
YKLAKHLDAXNBOF-IOJHDDLYSA-N

> <FORMULA>
C16H21N3O4S2

> <minimizedAffinity>
-5.27741

> <CNNscore>
0.3107871711

> <CNNaffinity>
4.4310741425

> <CNN_VS>
1.3771209717

> <CNNaffinity_variance>
0.1132111698

$$$$
1TE


 27 30  0  0  0  0  0  0  0  0999 V2000
   14.8766    2.0376   28.6047 C   0  0  0  0  0  0  0  0  0  0  0  0
   13.9474    3.0386   28.0415 N   0  0  0  0  0  0  0  0  0  0  0  0
   13.6486    4.1246   28.7700 C   0  0  0  0  0  0  0  0  0  0  0  0
   12.9822    4.2968   29.7690 O   0  0  0  0  0  0  0  0  0  0  0  0
   14.4431    5.0482   27.8950 C   0  0  0  0  0  0  0  0  0  0  0  0
   14.6549    3.8182   27.0245 C   0  0  0  0  0  0  0  0  0  0  0  0
   16.1089    3.3056   26.9787 C   0  0  0  0  0  0  0  0  0  0  0  0
   17.0108    4.1516   27.8792 C   0  0  0  0  0  0  0  0  0  0  0  0
   15.9789    1.8611   27.5322 C   0  0  0  0  0  0  0  0  0  0  0  0
   14.3894    0.0325   29.9622 O   0  0  0  0  0  0  0  0  0  0  0  0
   14.1604    0.7323   28.8399 C   0  0  0  0  0  0  0  0  0  0  0  0
   13.3799    0.3153   28.0169 O   0  0  0  0  0  0  0  0  0  0  0  0
   13.9073   -0.7978   30.0679 H   0  0  0  0  0  0  0  0  0  0  0  0
   13.6084    6.1441   27.2291 C   0  0  0  0  0  0  0  0  0  0  0  0
   14.5321    7.0920   26.4615 C   0  0  0  0  0  0  0  0  0  0  0  0
   12.6777    5.5489   26.3227 O   0  0  0  0  0  0  0  0  0  0  0  0
   13.0899    5.0342   25.6160 H   0  0  0  0  0  0  0  0  0  0  0  0
   17.5372    1.3092   28.2800 S   0  0  0  0  0  0  0  0  0  0  0  0
   17.7105   -0.3854   27.6593 C   0  0  0  0  0  0  0  0  0  0  0  0
   18.8108   -0.5596   26.6027 C   0  0  0  0  0  0  0  0  0  0  0  0
   16.7747   -0.7263   26.4910 C   0  0  0  0  0  0  0  0  0  0  0  0
   17.8107   -0.2041   25.5794 N   0  0  0  0  0  0  0  0  0  0  0  0
   17.9386   -1.0098   24.4586 C   0  0  0  0  0  0  0  0  0  0  0  0
   18.4060   -2.2190   24.4626 N   0  0  0  0  0  0  0  0  0  0  0  0
   18.4556   -2.8437   23.2995 C   0  0  0  0  0  0  0  0  0  0  0  0
   18.0111   -2.1289   22.2662 C   0  0  0  0  0  0  0  0  0  0  0  0
   17.4965   -0.5559   22.8711 S   0  0  0  0  0  0  0  0  0  0  0  0
 14 16  1  0  0  0
 14 15  1  0  0  0
  5 14  1  0  0  0
 11 12  2  0  0  0
  3  5  1  0  0  0
  5  6  1  0  0  0
  3  4  2  0  0  0
  2  3  1  0  0  0
  2  6  1  0  0  0
  6  7  1  0  0  0
  1  2  1  0  0  0
 10 11  1  0  0  0
 11  1  1  0  0  0
  7  9  1  0  0  0
  7  8  1  0  0  0
  1  9  1  0  0  0
  9 18  1  0  0  0
 24 25  2  0  0  0
 23 24  2  0  0  0
 20 22  1  0  0  0
 19 20  1  0  0  0
 25 26  2  0  0  0
 18 19  1  0  0  0
 22 23  1  0  0  0
 23 27  1  0  0  0
 21 22  1  0  0  0
 19 21  1  0  0  0
 26 27  1  0  0  0
 10 13  1  0  0  0
 16 17  1  0  0  0
M  END
> <OPENEYE_ISO_SMILES>
C[C@@H]1[C@@H]2[C@H](C(=O)N2[C@H]([C@@H]1SC3CN(C3)c4nccs4)C(=O)O)[C@@H](C)O

> <OPENEYE_INCHI>
InChI=1S/C16H21N3O4S2/c1-7-11-10(8(2)20)14(21)19(11)12(15(22)23)13(7)25-9-5-18(6-9)16-17-3-4-24-16/h3-4,7-13,20H,5-6H2,1-2H3,(H,22,23)/t7-,8-,10-,11-,12-,13-/m1/s1

> <OPENEYE_INCHIKEY>
YKLAKHLDAXNBOF-IOJHDDLYSA-N

> <FORMULA>
C16H21N3O4S2

> <minimizedAffinity>
-6.50029

> <CNNscore>
0.3056204915

> <CNNaffinity>
5.1231813431

> <CNN_VS>
1.5657491684

> <CNNaffinity_variance>
0.0902594775

$$$$
1TE


 27 30  0  0  0  0  0  0  0  0999 V2000
   -4.8985   17.2792   35.9568 C   0  0  0  0  0  0  0  0  0  0  0  0
   -4.2124   16.9866   34.6815 N   0  0  0  0  0  0  0  0  0  0  0  0
   -4.2180   17.9181   33.7164 C   0  0  0  0  0  0  0  0  0  0  0  0
   -5.0807   18.3414   32.9758 O   0  0  0  0  0  0  0  0  0  0  0  0
   -2.7646   18.2450   33.8906 C   0  0  0  0  0  0  0  0  0  0  0  0
   -2.7675   17.0958   34.8881 C   0  0  0  0  0  0  0  0  0  0  0  0
   -2.5414   17.5168   36.3546 C   0  0  0  0  0  0  0  0  0  0  0  0
   -2.4083   19.0365   36.4681 C   0  0  0  0  0  0  0  0  0  0  0  0
   -3.8367   17.0246   37.0543 C   0  0  0  0  0  0  0  0  0  0  0  0
   -7.2628   16.6626   35.5960 O   0  0  0  0  0  0  0  0  0  0  0  0
   -6.0756   16.3562   36.1422 C   0  0  0  0  0  0  0  0  0  0  0  0
   -5.9503   15.3397   36.7837 O   0  0  0  0  0  0  0  0  0  0  0  0
   -7.9870   16.0405   35.7425 H   0  0  0  0  0  0  0  0  0  0  0  0
   -1.9155   17.9839   32.6448 C   0  0  0  0  0  0  0  0  0  0  0  0
   -1.8210   19.2660   31.8152 C   0  0  0  0  0  0  0  0  0  0  0  0
   -0.6045   17.5748   33.0396 O   0  0  0  0  0  0  0  0  0  0  0  0
   -0.1329   18.2264   33.5756 H   0  0  0  0  0  0  0  0  0  0  0  0
   -4.1844   18.0047   38.5412 S   0  0  0  0  0  0  0  0  0  0  0  0
   -2.9675   17.3841   39.7332 C   0  0  0  0  0  0  0  0  0  0  0  0
   -2.8295   15.8550   39.7540 C   0  0  0  0  0  0  0  0  0  0  0  0
   -3.5219   17.1806   41.1502 C   0  0  0  0  0  0  0  0  0  0  0  0
   -3.9262   15.8225   40.7389 N   0  0  0  0  0  0  0  0  0  0  0  0
   -3.6663   14.9013   41.7416 C   0  0  0  0  0  0  0  0  0  0  0  0
   -4.0911   13.6765   41.7535 N   0  0  0  0  0  0  0  0  0  0  0  0
   -3.7461   12.9350   42.7909 C   0  0  0  0  0  0  0  0  0  0  0  0
   -2.9969   13.5626   43.6971 C   0  0  0  0  0  0  0  0  0  0  0  0
   -2.7333   15.2132   43.1394 S   0  0  0  0  0  0  0  0  0  0  0  0
 14 16  1  0  0  0
 14 15  1  0  0  0
  5 14  1  0  0  0
 11 12  2  0  0  0
  3  5  1  0  0  0
  5  6  1  0  0  0
  3  4  2  0  0  0
  2  3  1  0  0  0
  2  6  1  0  0  0
  6  7  1  0  0  0
  1  2  1  0  0  0
 10 11  1  0  0  0
 11  1  1  0  0  0
  7  9  1  0  0  0
  7  8  1  0  0  0
  1  9  1  0  0  0
  9 18  1  0  0  0
 24 25  2  0  0  0
 23 24  2  0  0  0
 20 22  1  0  0  0
 19 20  1  0  0  0
 25 26  2  0  0  0
 18 19  1  0  0  0
 22 23  1  0  0  0
 23 27  1  0  0  0
 21 22  1  0  0  0
 19 21  1  0  0  0
 26 27  1  0  0  0
 10 13  1  0  0  0
 16 17  1  0  0  0
M  END
> <OPENEYE_ISO_SMILES>
C[C@@H]1[C@@H]2[C@H](C(=O)N2[C@H]([C@@H]1SC3CN(C3)c4nccs4)C(=O)O)[C@@H](C)O

> <OPENEYE_INCHI>
InChI=1S/C16H21N3O4S2/c1-7-11-10(8(2)20)14(21)19(11)12(15(22)23)13(7)25-9-5-18(6-9)16-17-3-4-24-16/h3-4,7-13,20H,5-6H2,1-2H3,(H,22,23)/t7-,8-,10-,11-,12-,13-/m1/s1

> <OPENEYE_INCHIKEY>
YKLAKHLDAXNBOF-IOJHDDLYSA-N

> <FORMULA>
C16H21N3O4S2

> <minimizedAffinity>
-5.25297

> <CNNscore>
0.2877359390

> <CNNaffinity>
3.9945359230

> <CNN_VS>
1.1493715048

> <CNNaffinity_variance>
0.1702274531

$$$$
